<?xml version="1.0" encoding="UTF-8"?>
<!-- generated on 2019-03-15 10:04:46.378668 by $Id$
  options: -n vanet.net.xml -r vanet.rou.xml -e 50 -l
-->
<routes xmlns:xsi="http://www.w3.org/2001/XMLSchema-instance" xsi:noNamespaceSchemaLocation="http://sumo.dlr.de/xsd/routes_file.xsd">
    <trip id="0" depart="0.00" from="252055298#0" to="-252055296#0"/>
    <trip id="1" depart="1.00" from="252060629#0" to="-252055296#0"/>
    <trip id="2" depart="2.00" from="252040686#6" to="252055297#1"/>
    <trip id="3" depart="3.00" from="252055298#0" to="-252055296#0"/>
    <trip id="4" depart="4.00" from="252055298#0" to="-252060628"/>
    <trip id="5" depart="5.00" from="252040686#7" to="-252055296#0"/>
    <trip id="6" depart="6.00" from="252055295#0" to="252040727#3"/>
    <trip id="7" depart="7.00" from="-252025295#1" to="-252055298#0"/>
    <trip id="8" depart="8.00" from="252055298#0" to="-252055296#0"/>
    <trip id="9" depart="9.00" from="252040727#0" to="-252055298#0"/>
    <trip id="10" depart="10.00" from="-252055188#2" to="-252060629#0"/>
    <trip id="11" depart="11.00" from="252055296#0" to="-252055296#0"/>
    <trip id="12" depart="12.00" from="-252055188#2" to="-252060629#0"/>
    <trip id="13" depart="13.00" from="-252055188#2" to="252055297#1"/>
    <trip id="14" depart="14.00" from="252055465" to="-252055296#0"/>
    <trip id="15" depart="15.00" from="252055298#0" to="252055297#1"/>
    <trip id="16" depart="16.00" from="252055295#0" to="252055297#1"/>
    <trip id="17" depart="17.00" from="-252025295#1" to="-252055296#0"/>
    <trip id="18" depart="18.00" from="252055296#0" to="252040727#3"/>
    <trip id="19" depart="19.00" from="252055296#0" to="252055458"/>
    <trip id="20" depart="20.00" from="252055295#0" to="-252055298#0"/>
    <trip id="21" depart="21.00" from="252060628" to="252055297#1"/>
    <trip id="22" depart="22.00" from="252055298#0" to="252055297#1"/>
    <trip id="23" depart="23.00" from="252040686#9" to="252055188#2"/>
    <trip id="24" depart="24.00" from="252040718#1" to="-252055298#0"/>
    <trip id="25" depart="25.00" from="-252055469" to="-252060629#0"/>
    <trip id="26" depart="26.00" from="252060629#0" to="-252055298#0"/>
    <trip id="27" depart="27.00" from="252055295#0" to="-252055298#0"/>
    <trip id="28" depart="28.00" from="252060629#0" to="-252060629#0"/>
    <trip id="29" depart="29.00" from="252060629#0" to="252055297#1"/>
    <trip id="30" depart="30.00" from="252055296#0" to="-252055296#0"/>
    <trip id="31" depart="31.00" from="252040763#12" to="252040686#1"/>
    <trip id="32" depart="32.00" from="252055458" to="-252060628"/>
    <trip id="33" depart="33.00" from="252055298#0" to="252055458"/>
    <trip id="34" depart="34.00" from="252055296#0" to="252055297#1"/>
    <trip id="35" depart="35.00" from="-252055577#1" to="-252060628"/>
    <trip id="36" depart="36.00" from="252040763#7" to="-252060629#0"/>
    <trip id="37" depart="37.00" from="252055295#0" to="252025295#1"/>
    <trip id="38" depart="38.00" from="252055298#0" to="252040762#6"/>
    <trip id="39" depart="39.00" from="252055298#0" to="252055458"/>
    <trip id="40" depart="40.00" from="252055295#0" to="252040686#2"/>
    <trip id="41" depart="41.00" from="252055295#0" to="252055465"/>
    <trip id="42" depart="42.00" from="252055298#0" to="-252055298#0"/>
    <trip id="43" depart="43.00" from="252055298#0" to="252025295#1"/>
    <trip id="44" depart="44.00" from="252055295#0" to="-252055188#1"/>
    <trip id="45" depart="45.00" from="252055298#0" to="-252055296#0"/>
    <trip id="46" depart="46.00" from="-252055469" to="-252055298#0"/>
    <trip id="47" depart="47.00" from="252040686#3" to="-252055298#0"/>
    <trip id="48" depart="48.00" from="-252025295#1" to="-252055296#0"/>
    <trip id="49" depart="49.00" from="252055296#0" to="-252055298#0"/>
</routes>
