<?xml version="1.0" encoding="UTF-8"?>

<!-- generated on Fri Mar 15 10:05:05 2019 by Eclipse SUMO duarouter Version 1.1.0
<configuration xmlns:xsi="http://www.w3.org/2001/XMLSchema-instance" xsi:noNamespaceSchemaLocation="http://sumo.dlr.de/xsd/duarouterConfiguration.xsd">

    <input>
        <net-file value="vanet.net.xml"/>
        <route-files value="trips.trips.xml"/>
    </input>

    <output>
        <output-file value="vanet.rou.xml"/>
        <alternatives-output value="vanet.rou.alt.xml"/>
    </output>

    <time>
        <begin value="0"/>
        <end value="50.0"/>
    </time>

    <report>
        <no-warnings value="true"/>
        <ignore-errors value="true"/>
        <no-step-log value="true"/>
    </report>

</configuration>
-->

<routes xmlns:xsi="http://www.w3.org/2001/XMLSchema-instance" xsi:noNamespaceSchemaLocation="http://sumo.dlr.de/xsd/routes_file.xsd">
    <vehicle id="0" depart="0.00">
        <route edges="252055298#0 252055298#1 252040763#4 252040763#5 252040763#6 252040763#7 -252055296#1 -252055296#0"/>
    </vehicle>
    <vehicle id="1" depart="1.00">
        <route edges="252060629#0 252060629#1 252040686#2 -252055296#0"/>
    </vehicle>
    <vehicle id="2" depart="2.00">
        <route edges="252040686#6 -252025295#0 252040763#3 252040763#4 252040763#5 252055297#0 252055297#1"/>
    </vehicle>
    <vehicle id="3" depart="3.00">
        <route edges="252055298#0 252055298#1 252040763#4 252040763#5 252040763#6 252040763#7 -252055296#1 -252055296#0"/>
    </vehicle>
    <vehicle id="4" depart="4.00">
        <route edges="252055298#0 252055298#1 252040763#4 252040763#5 252040763#6 252040763#7 252040763#8 252040763#9 252040763#10 252040763#11 252040763#12 -252060628"/>
    </vehicle>
    <vehicle id="5" depart="5.00">
        <route edges="252040686#7 252040686#8 252040686#9 252040763#0 252040763#1 252040763#2 252040763#3 252040763#4 252040763#5 252040763#6 252040763#7 -252055296#1 -252055296#0"/>
    </vehicle>
    <vehicle id="6" depart="6.00">
        <route edges="252055295#0 252040686#5 252040686#6 252040686#7 252040686#8 252040686#9 252040727#3"/>
    </vehicle>
    <vehicle id="7" depart="7.00">
        <route edges="-252025295#1 -252025295#0 252040763#3 -252055298#1 -252055298#0"/>
    </vehicle>
    <vehicle id="8" depart="8.00">
        <route edges="252055298#0 252055298#1 252040763#4 252040763#5 252040763#6 252040763#7 -252055296#1 -252055296#0"/>
    </vehicle>
    <vehicle id="9" depart="9.00">
        <route edges="252040727#0 252040727#1 252040727#2 252040763#0 252040763#1 252040763#2 252040763#3 -252055298#1 -252055298#0"/>
    </vehicle>
    <vehicle id="10" depart="10.00">
        <route edges="-252055188#2 -252055188#1 -252055188#0 252040686#0 252040686#1 -252060629#1 -252060629#0"/>
    </vehicle>
    <vehicle id="11" depart="11.00">
        <route edges="252055296#0 -252055296#0"/>
    </vehicle>
    <vehicle id="12" depart="12.00">
        <route edges="-252055188#2 -252055188#1 -252055188#0 252040686#0 252040686#1 -252060629#1 -252060629#0"/>
    </vehicle>
    <vehicle id="13" depart="13.00">
        <route edges="-252055188#2 -252055188#1 -252055188#0 252040686#0 252040686#1 252040686#2 252040686#3 252055297#1"/>
    </vehicle>
    <vehicle id="14" depart="14.00">
        <route edges="252055465 252055458 252040686#9 252040763#0 252040763#1 252040763#2 252040763#3 252040763#4 252040763#5 252040763#6 252040763#7 -252055296#1 -252055296#0"/>
    </vehicle>
    <vehicle id="15" depart="15.00">
        <route edges="252055298#0 252055298#1 252040763#4 252040763#5 252055297#0 252055297#1"/>
    </vehicle>
    <vehicle id="16" depart="16.00">
        <route edges="252055295#0 252055295#1 252055297#0 252055297#1"/>
    </vehicle>
    <vehicle id="17" depart="17.00">
        <route edges="-252025295#1 -252025295#0 252040763#3 252040763#4 252040763#5 252040763#6 252040763#7 -252055296#1 -252055296#0"/>
    </vehicle>
    <vehicle id="18" depart="18.00">
        <route edges="252055296#0 252040686#3 252040686#4 252040686#5 252040686#6 252040686#7 252040686#8 252040686#9 252040727#3"/>
    </vehicle>
    <vehicle id="19" depart="19.00">
        <route edges="252055296#0 252040686#3 252040686#4 252040686#5 252040686#6 252040686#7 252055465 252055458"/>
    </vehicle>
    <vehicle id="20" depart="20.00">
        <route edges="252055295#0 252040686#5 -252055298#0"/>
    </vehicle>
    <vehicle id="21" depart="21.00">
        <route edges="252060628 252040686#0 252040686#1 252040686#2 252040686#3 252055297#1"/>
    </vehicle>
    <vehicle id="22" depart="22.00">
        <route edges="252055298#0 252055298#1 252040763#4 252040763#5 252055297#0 252055297#1"/>
    </vehicle>
    <vehicle id="23" depart="23.00">
        <route edges="252040686#9 -252040727#2 -252040727#1 252040762#4 252040762#5 252040762#6 252055188#2"/>
    </vehicle>
    <vehicle id="26" depart="26.00">
        <route edges="252060629#0 252060629#1 252040686#2 252040686#3 252040686#4 252040686#5 -252055298#0"/>
    </vehicle>
    <vehicle id="27" depart="27.00">
        <route edges="252055295#0 252040686#5 -252055298#0"/>
    </vehicle>
    <vehicle id="28" depart="28.00">
        <route edges="252060629#0 -252060629#0"/>
    </vehicle>
    <vehicle id="29" depart="29.00">
        <route edges="252060629#0 252060629#1 252040686#2 252040686#3 252055297#1"/>
    </vehicle>
    <vehicle id="30" depart="30.00">
        <route edges="252055296#0 -252055296#0"/>
    </vehicle>
    <vehicle id="31" depart="31.00">
        <route edges="252040763#12 252040686#0 252040686#1"/>
    </vehicle>
    <vehicle id="32" depart="32.00">
        <route edges="252055458 252040686#9 -252040727#2 -252040727#1 252040762#4 252040762#5 252040762#6 -252055188#1 -252055188#0 -252060628"/>
    </vehicle>
    <vehicle id="33" depart="33.00">
        <route edges="252055298#0 252040686#6 252040686#7 252055465 252055458"/>
    </vehicle>
    <vehicle id="34" depart="34.00">
        <route edges="252055296#0 252040686#3 252055297#1"/>
    </vehicle>
    <vehicle id="36" depart="36.00">
        <route edges="252040763#7 252040763#8 252040763#9 -252060629#2 -252060629#1 -252060629#0"/>
    </vehicle>
    <vehicle id="37" depart="37.00">
        <route edges="252055295#0 252040686#5 252040686#6 252025295#1"/>
    </vehicle>
    <vehicle id="38" depart="38.00">
        <route edges="252055298#0 252040686#6 252040686#7 252040686#8 252040686#9 -252040727#2 -252040727#1 252040762#4 252040762#5 252040762#6"/>
    </vehicle>
    <vehicle id="39" depart="39.00">
        <route edges="252055298#0 252040686#6 252040686#7 252055465 252055458"/>
    </vehicle>
    <vehicle id="40" depart="40.00">
        <route edges="252055295#0 252055295#1 252040763#6 252040763#7 252040763#8 252040763#9 -252060629#2 252040686#2"/>
    </vehicle>
    <vehicle id="41" depart="41.00">
        <route edges="252055295#0 252040686#5 252040686#6 252040686#7 252055465"/>
    </vehicle>
    <vehicle id="42" depart="42.00">
        <route edges="252055298#0 -252055298#0"/>
    </vehicle>
    <vehicle id="43" depart="43.00">
        <route edges="252055298#0 252040686#6 252025295#1"/>
    </vehicle>
    <vehicle id="44" depart="44.00">
        <route edges="252055295#0 252055295#1 252040763#6 252040763#7 252040763#8 252040763#9 252040763#10 252040763#11 252040763#12 252055188#0 252055188#1 -252055188#1"/>
    </vehicle>
    <vehicle id="45" depart="45.00">
        <route edges="252055298#0 252055298#1 252040763#4 252040763#5 252040763#6 252040763#7 -252055296#1 -252055296#0"/>
    </vehicle>
    <vehicle id="47" depart="47.00">
        <route edges="252040686#3 252040686#4 252040686#5 -252055298#0"/>
    </vehicle>
    <vehicle id="48" depart="48.00">
        <route edges="-252025295#1 -252025295#0 252040763#3 252040763#4 252040763#5 252040763#6 252040763#7 -252055296#1 -252055296#0"/>
    </vehicle>
    <vehicle id="49" depart="49.00">
        <route edges="252055296#0 252040686#3 252040686#4 252040686#5 -252055298#0"/>
    </vehicle>
</routes>
