<?xml version="1.0" encoding="UTF-8"?>

<!-- generated on Thu Mar 14 19:34:20 2019 by Eclipse SUMO netconvert Version 1.1.0
<configuration xmlns:xsi="http://www.w3.org/2001/XMLSchema-instance" xsi:noNamespaceSchemaLocation="http://sumo.dlr.de/xsd/netconvertConfiguration.xsd">

    <input>
        <osm-files value="vanet.osm"/>
    </input>

    <output>
        <output-file value="vanet.net.xml"/>
    </output>

    <projection>
        <proj.utm value="true"/>
    </projection>

</configuration>
-->

<net version="1.1" junctionCornerDetail="5" limitTurnSpeed="5.50" xmlns:xsi="http://www.w3.org/2001/XMLSchema-instance" xsi:noNamespaceSchemaLocation="http://sumo.dlr.de/xsd/net_file.xsd">

    <location netOffset="-567014.25,-1784939.70" convBoundary="0.00,0.00,4687.47,2823.14" origBoundary="75.626842,16.143666,75.670680,16.169179" projParameter="+proj=utm +zone=43 +ellps=WGS84 +datum=WGS84 +units=m +no_defs"/>

    <type id="highway.bridleway" priority="1" numLanes="1" speed="2.78" allow="pedestrian" oneway="1" width="2.00"/>
    <type id="highway.bus_guideway" priority="1" numLanes="1" speed="27.78" allow="bus" oneway="1"/>
    <type id="highway.cycleway" priority="1" numLanes="1" speed="8.33" allow="bicycle" oneway="0" width="1.00"/>
    <type id="highway.footway" priority="1" numLanes="1" speed="2.78" allow="pedestrian" oneway="1" width="2.00"/>
    <type id="highway.ford" priority="1" numLanes="1" speed="2.78" allow="army" oneway="0"/>
    <type id="highway.living_street" priority="3" numLanes="1" speed="2.78" disallow="tram rail_urban rail rail_electric ship" oneway="0"/>
    <type id="highway.motorway" priority="13" numLanes="2" speed="44.44" allow="private emergency authority army vip passenger hov taxi bus coach delivery truck trailer motorcycle evehicle custom1 custom2" oneway="1"/>
    <type id="highway.motorway_link" priority="12" numLanes="1" speed="22.22" allow="private emergency authority army vip passenger hov taxi bus coach delivery truck trailer motorcycle evehicle custom1 custom2" oneway="1"/>
    <type id="highway.path" priority="1" numLanes="1" speed="2.78" allow="bicycle pedestrian" oneway="1" width="2.00"/>
    <type id="highway.pedestrian" priority="1" numLanes="1" speed="2.78" allow="pedestrian" oneway="1" width="2.00"/>
    <type id="highway.primary" priority="9" numLanes="2" speed="27.78" disallow="tram rail_urban rail rail_electric ship" oneway="0"/>
    <type id="highway.primary_link" priority="8" numLanes="1" speed="22.22" disallow="tram rail_urban rail rail_electric ship" oneway="0"/>
    <type id="highway.raceway" priority="14" numLanes="2" speed="83.33" allow="vip" oneway="0"/>
    <type id="highway.residential" priority="4" numLanes="1" speed="13.89" disallow="tram rail_urban rail rail_electric ship" oneway="0"/>
    <type id="highway.secondary" priority="7" numLanes="2" speed="27.78" disallow="tram rail_urban rail rail_electric ship" oneway="0"/>
    <type id="highway.secondary_link" priority="6" numLanes="1" speed="22.22" disallow="tram rail_urban rail rail_electric ship" oneway="0"/>
    <type id="highway.service" priority="2" numLanes="1" speed="5.56" allow="delivery bicycle pedestrian" oneway="0"/>
    <type id="highway.stairs" priority="1" numLanes="1" speed="1.39" allow="pedestrian" oneway="1" width="2.00"/>
    <type id="highway.step" priority="1" numLanes="1" speed="1.39" allow="pedestrian" oneway="1" width="2.00"/>
    <type id="highway.steps" priority="1" numLanes="1" speed="1.39" allow="pedestrian" oneway="1" width="2.00"/>
    <type id="highway.tertiary" priority="6" numLanes="1" speed="22.22" disallow="tram rail_urban rail rail_electric ship" oneway="0"/>
    <type id="highway.tertiary_link" priority="5" numLanes="1" speed="22.22" disallow="tram rail_urban rail rail_electric ship" oneway="0"/>
    <type id="highway.track" priority="1" numLanes="1" speed="5.56" disallow="tram rail_urban rail rail_electric ship" oneway="0"/>
    <type id="highway.trunk" priority="11" numLanes="2" speed="27.78" disallow="tram rail_urban rail rail_electric bicycle pedestrian ship" oneway="0"/>
    <type id="highway.trunk_link" priority="10" numLanes="1" speed="22.22" disallow="tram rail_urban rail rail_electric bicycle pedestrian ship" oneway="0"/>
    <type id="highway.unclassified" priority="5" numLanes="1" speed="13.89" disallow="tram rail_urban rail rail_electric ship" oneway="0"/>
    <type id="highway.unsurfaced" priority="1" numLanes="1" speed="8.33" disallow="tram rail_urban rail rail_electric ship" oneway="0"/>
    <type id="railway.light_rail" priority="15" numLanes="1" speed="27.78" allow="rail_urban" oneway="1"/>
    <type id="railway.preserved" priority="15" numLanes="1" speed="27.78" allow="rail" oneway="1"/>
    <type id="railway.rail" priority="15" numLanes="1" speed="83.33" allow="rail rail_electric" oneway="1"/>
    <type id="railway.subway" priority="15" numLanes="1" speed="27.78" allow="rail_urban" oneway="1"/>
    <type id="railway.tram" priority="15" numLanes="1" speed="13.89" allow="tram" oneway="1"/>

    <edge id=":2581464368_0" function="internal">
        <lane id=":2581464368_0_0" index="0" disallow="tram rail_urban rail rail_electric ship" speed="3.65" length="4.67" shape="3401.05,2817.85 3400.24,2819.04 3399.43,2819.43 3398.64,2819.02 3397.85,2817.82"/>
    </edge>
    <edge id=":2581559561_0" function="internal">
        <lane id=":2581559561_0_0" index="0" disallow="tram rail_urban rail rail_electric ship" speed="3.65" length="4.67" shape="3704.66,2823.17 3703.84,2824.35 3703.03,2824.74 3702.24,2824.33 3701.46,2823.12"/>
    </edge>
    <edge id=":2581591761_0" function="internal">
        <lane id=":2581591761_0_0" index="0" disallow="tram rail_urban rail rail_electric ship" speed="22.22" length="9.77" shape="3764.82,1744.38 3761.92,1744.32 3759.92,1744.39 3757.97,1744.79 3755.24,1745.71"/>
    </edge>
    <edge id=":2581591761_1" function="internal">
        <lane id=":2581591761_1_0" index="0" disallow="tram rail_urban rail rail_electric ship" speed="6.50" length="4.28" shape="3764.82,1744.38 3762.37,1743.98 3760.84,1743.02"/>
    </edge>
    <edge id=":2581591761_4" function="internal">
        <lane id=":2581591761_4_0" index="0" disallow="tram rail_urban rail rail_electric ship" speed="6.50" length="4.75" shape="3760.84,1743.02 3760.65,1742.90 3759.64,1741.12 3759.34,1738.67"/>
    </edge>
    <edge id=":2581591761_2" function="internal">
        <lane id=":2581591761_2_0" index="0" disallow="tram rail_urban rail rail_electric ship" speed="4.95" length="6.14" shape="3759.12,1748.57 3758.91,1746.78 3758.20,1745.70 3756.97,1745.35 3755.24,1745.71"/>
    </edge>
    <edge id=":2581591761_3" function="internal">
        <lane id=":2581591761_3_0" index="0" disallow="tram rail_urban rail rail_electric ship" speed="22.22" length="9.91" shape="3759.12,1748.57 3759.34,1738.67"/>
    </edge>
    <edge id=":2581591764_0" function="internal">
        <lane id=":2581591764_0_0" index="0" disallow="tram rail_urban rail rail_electric ship" speed="4.91" length="6.75" shape="3755.05,1745.78 3753.32,1746.70 3752.68,1747.80 3753.13,1749.10 3754.67,1750.59"/>
    </edge>
    <edge id=":2581591764_1" function="internal">
        <lane id=":2581591764_1_0" index="0" disallow="tram rail_urban rail rail_electric ship" speed="8.16" length="10.60" shape="3755.05,1745.78 3753.05,1746.94 3751.60,1748.79 3750.70,1751.33 3750.34,1754.55"/>
    </edge>
    <edge id=":2581591764_2" function="internal">
        <lane id=":2581591764_2_0" index="0" disallow="tram rail_urban rail rail_electric ship" speed="9.52" length="10.72" shape="3750.65,1741.09 3750.84,1744.06 3751.58,1746.63 3752.86,1748.81 3754.67,1750.59"/>
    </edge>
    <edge id=":2581591764_3" function="internal">
        <lane id=":2581591764_3_0" index="0" disallow="tram rail_urban rail rail_electric ship" speed="22.22" length="13.47" shape="3750.65,1741.09 3750.34,1754.55"/>
    </edge>
    <edge id=":2581591771_0" function="internal">
        <lane id=":2581591771_0_0" index="0" disallow="tram rail_urban rail rail_electric ship" speed="4.87" length="6.79" shape="3754.83,1750.71 3756.66,1751.77 3757.99,1751.80 3758.80,1750.80 3759.11,1748.77"/>
    </edge>
    <edge id=":2581591771_1" function="internal">
        <lane id=":2581591771_1_0" index="0" disallow="tram rail_urban rail rail_electric ship" speed="12.84" length="10.60" shape="3754.83,1750.71 3757.34,1752.48 3759.34,1753.44 3761.53,1753.86 3764.60,1754.00"/>
    </edge>
    <edge id=":2581591771_2" function="internal">
        <lane id=":2581591771_2_0" index="0" disallow="tram rail_urban rail rail_electric ship" speed="22.22" length="10.70" shape="3758.87,1759.47 3759.11,1748.77"/>
    </edge>
    <edge id=":2581591771_3" function="internal">
        <lane id=":2581591771_3_0" index="0" disallow="tram rail_urban rail rail_electric ship" speed="6.51" length="4.52" shape="3758.87,1759.47 3759.28,1757.03 3760.37,1755.30"/>
    </edge>
    <edge id=":2581591771_4" function="internal">
        <lane id=":2581591771_4_0" index="0" disallow="tram rail_urban rail rail_electric ship" speed="6.51" length="4.52" shape="3760.37,1755.30 3762.14,1754.29 3764.60,1754.00"/>
    </edge>
    <edge id=":2581591840_0" function="internal">
        <lane id=":2581591840_0_0" index="0" disallow="tram rail_urban rail rail_electric ship" speed="9.92" length="10.63" shape="3757.78,1901.41 3754.70,1901.58 3752.05,1902.22 3749.85,1903.32 3748.09,1904.90"/>
    </edge>
    <edge id=":2581591840_1" function="internal">
        <lane id=":2581591840_1_0" index="0" disallow="tram rail_urban rail rail_electric ship" speed="6.66" length="4.23" shape="3757.78,1901.41 3754.50,1900.77 3753.88,1900.13"/>
    </edge>
    <edge id=":2581591840_2" function="internal">
        <lane id=":2581591840_2_0" index="0" disallow="tram rail_urban rail rail_electric ship" speed="3.65" length="2.19" shape="3757.78,1901.41 3756.59,1900.58 3756.27,1899.90"/>
    </edge>
    <edge id=":2581591840_9" function="internal">
        <lane id=":2581591840_9_0" index="0" disallow="tram rail_urban rail rail_electric ship" speed="6.66" length="8.59" shape="3753.88,1900.13 3752.83,1899.04 3752.76,1896.19 3754.28,1892.24"/>
    </edge>
    <edge id=":2581591840_10" function="internal">
        <lane id=":2581591840_10_0" index="0" disallow="tram rail_urban rail rail_electric ship" speed="3.65" length="2.48" shape="3756.27,1899.90 3756.21,1899.78 3756.62,1898.98 3757.84,1898.21"/>
    </edge>
    <edge id=":2581591840_3" function="internal">
        <lane id=":2581591840_3_0" index="0" disallow="tram rail_urban rail rail_electric ship" speed="5.55" length="10.05" shape="3748.06,1892.17 3749.35,1894.99 3750.81,1895.94 3752.46,1895.02 3754.28,1892.24"/>
    </edge>
    <edge id=":2581591840_4" function="internal">
        <lane id=":2581591840_4_0" index="0" disallow="tram rail_urban rail rail_electric ship" speed="8.57" length="12.33" shape="3748.06,1892.17 3749.38,1894.75 3751.44,1896.62 3754.26,1897.77 3757.84,1898.21"/>
    </edge>
    <edge id=":2581591840_5" function="internal">
        <lane id=":2581591840_5_0" index="0" disallow="tram rail_urban rail rail_electric ship" speed="10.03" length="13.18" shape="3748.06,1892.17 3749.17,1896.45 3749.55,1900.00 3749.19,1902.81 3748.09,1904.90"/>
    </edge>
    <edge id=":2581591840_6" function="internal">
        <lane id=":2581591840_6_0" index="0" disallow="tram rail_urban rail rail_electric ship" speed="22.22" length="13.70" shape="3745.65,1902.82 3748.05,1900.19 3750.33,1897.77 3752.42,1895.23 3754.28,1892.24"/>
    </edge>
    <edge id=":2581591840_7" function="internal">
        <lane id=":2581591840_7_0" index="0" disallow="tram rail_urban rail rail_electric ship" speed="11.11" length="13.46" shape="3745.65,1902.82 3747.94,1900.74 3750.74,1899.28 3754.03,1898.44 3757.84,1898.21"/>
    </edge>
    <edge id=":2581591840_8" function="internal">
        <lane id=":2581591840_8_0" index="0" disallow="tram rail_urban rail rail_electric ship" speed="3.65" length="2.55" shape="3745.65,1902.82 3747.04,1902.43 3747.91,1902.64 3747.99,1902.84"/>
    </edge>
    <edge id=":2581591840_11" function="internal">
        <lane id=":2581591840_11_0" index="0" disallow="tram rail_urban rail rail_electric ship" speed="3.65" length="2.12" shape="3747.99,1902.84 3748.26,1903.47 3748.09,1904.90"/>
    </edge>
    <edge id=":2581591852_0" function="internal">
        <lane id=":2581591852_0_0" index="0" disallow="tram rail_urban rail rail_electric ship" speed="3.65" length="4.67" shape="4434.80,1911.95 4435.98,1912.77 4436.36,1913.58 4435.95,1914.37 4434.73,1915.15"/>
    </edge>
    <edge id=":2581591861_0" function="internal">
        <lane id=":2581591861_0_0" index="0" disallow="tram rail_urban rail rail_electric ship" speed="4.77" length="5.22" shape="3738.35,1921.32 3737.13,1920.35 3736.01,1920.07 3734.99,1920.47 3734.08,1921.56"/>
    </edge>
    <edge id=":2581591861_1" function="internal">
        <lane id=":2581591861_1_0" index="0" allow="delivery bicycle pedestrian" speed="5.56" length="9.99" shape="3738.35,1921.32 3731.35,1914.19"/>
    </edge>
    <edge id=":2581591861_2" function="internal">
        <lane id=":2581591861_2_0" index="0" disallow="tram rail_urban rail rail_electric ship" speed="7.26" length="10.68" shape="3738.35,1921.32 3736.63,1918.99 3736.01,1916.62 3736.47,1914.21 3738.01,1911.78"/>
    </edge>
    <edge id=":2581591861_3" function="internal">
        <lane id=":2581591861_3_0" index="0" allow="delivery bicycle pedestrian" speed="3.65" length="4.67" shape="3738.35,1921.32 3738.08,1919.90 3738.38,1919.06 3739.23,1918.79 3740.64,1919.09"/>
    </edge>
    <edge id=":2581591861_4" function="internal">
        <lane id=":2581591861_4_0" index="0" allow="delivery bicycle pedestrian" speed="5.56" length="5.86" shape="3740.45,1913.86 3739.60,1915.19 3739.35,1916.51 3739.70,1917.81 3740.64,1919.09"/>
    </edge>
    <edge id=":2581591861_5" function="internal">
        <lane id=":2581591861_5_0" index="0" disallow="tram rail_urban rail rail_electric ship" speed="22.22" length="10.02" shape="3740.45,1913.86 3738.45,1916.06 3737.02,1917.53 3735.71,1919.08 3734.08,1921.56"/>
    </edge>
    <edge id=":2581591861_6" function="internal">
        <lane id=":2581591861_6_0" index="0" allow="delivery bicycle pedestrian" speed="6.80" length="2.49" shape="3740.45,1913.86 3738.57,1915.50"/>
    </edge>
    <edge id=":2581591861_7" function="internal">
        <lane id=":2581591861_7_0" index="0" disallow="tram rail_urban rail rail_electric ship" speed="3.65" length="2.34" shape="3740.45,1913.86 3739.06,1914.25 3738.19,1914.04"/>
    </edge>
    <edge id=":2581591861_16" function="internal">
        <lane id=":2581591861_16_0" index="0" allow="delivery bicycle pedestrian" speed="6.80" length="8.10" shape="3738.57,1915.50 3738.24,1915.80 3735.99,1916.50 3733.69,1915.96 3731.35,1914.19"/>
    </edge>
    <edge id=":2581591861_17" function="internal">
        <lane id=":2581591861_17_0" index="0" disallow="tram rail_urban rail rail_electric ship" speed="3.65" length="2.34" shape="3738.19,1914.04 3737.84,1913.21 3738.01,1911.78"/>
    </edge>
    <edge id=":2581591861_8" function="internal">
        <lane id=":2581591861_8_0" index="0" disallow="tram rail_urban rail rail_electric ship" speed="4.95" length="5.10" shape="3733.63,1911.94 3734.76,1912.80 3735.86,1913.05 3736.95,1912.71 3738.01,1911.78"/>
    </edge>
    <edge id=":2581591861_9" function="internal">
        <lane id=":2581591861_9_0" index="0" allow="delivery bicycle pedestrian" speed="5.56" length="10.01" shape="3733.63,1911.94 3740.64,1919.09"/>
    </edge>
    <edge id=":2581591861_10" function="internal">
        <lane id=":2581591861_10_0" index="0" disallow="tram rail_urban rail rail_electric ship" speed="7.66" length="10.46" shape="3733.63,1911.94 3735.11,1914.01 3735.68,1916.31 3735.34,1918.82 3734.08,1921.56"/>
    </edge>
    <edge id=":2581591861_11" function="internal">
        <lane id=":2581591861_11_0" index="0" allow="delivery bicycle pedestrian" speed="3.65" length="4.67" shape="3733.63,1911.94 3733.90,1913.36 3733.62,1914.20 3732.77,1914.48 3731.35,1914.19"/>
    </edge>
    <edge id=":2581591861_12" function="internal">
        <lane id=":2581591861_12_0" index="0" allow="delivery bicycle pedestrian" speed="5.84" length="5.73" shape="3731.61,1919.46 3732.30,1917.96 3732.48,1916.58 3732.17,1915.33 3731.35,1914.19"/>
    </edge>
    <edge id=":2581591861_13" function="internal">
        <lane id=":2581591861_13_0" index="0" disallow="tram rail_urban rail rail_electric ship" speed="22.22" length="10.03" shape="3731.61,1919.46 3733.24,1916.99 3734.56,1915.44 3736.01,1913.98 3738.01,1911.78"/>
    </edge>
    <edge id=":2581591861_14" function="internal">
        <lane id=":2581591861_14_0" index="0" allow="delivery bicycle pedestrian" speed="6.57" length="2.56" shape="3731.61,1919.46 3733.26,1917.51"/>
    </edge>
    <edge id=":2581591861_15" function="internal">
        <lane id=":2581591861_15_0" index="0" disallow="tram rail_urban rail rail_electric ship" speed="3.67" length="2.17" shape="3731.61,1919.46 3733.02,1919.06 3733.70,1919.22"/>
    </edge>
    <edge id=":2581591861_18" function="internal">
        <lane id=":2581591861_18_0" index="0" allow="delivery bicycle pedestrian" speed="6.57" length="8.48" shape="3733.26,1917.51 3733.52,1917.20 3735.66,1916.39 3738.04,1917.02 3740.64,1919.09"/>
    </edge>
    <edge id=":2581591861_19" function="internal">
        <lane id=":2581591861_19_0" index="0" disallow="tram rail_urban rail rail_electric ship" speed="3.67" length="2.57" shape="3733.70,1919.22 3733.90,1919.27 3734.25,1920.10 3734.08,1921.56"/>
    </edge>
    <edge id=":2581591864_0" function="internal">
        <lane id=":2581591864_0_0" index="0" disallow="tram rail_urban rail rail_electric ship" speed="6.70" length="7.08" shape="3426.17,1921.20 3423.47,1921.23 3421.45,1921.48 3420.12,1921.95 3419.48,1922.63"/>
    </edge>
    <edge id=":2581591864_1" function="internal">
        <lane id=":2581591864_1_0" index="0" disallow="tram rail_urban rail rail_electric ship" speed="18.77" length="14.51" shape="3426.17,1921.20 3422.68,1920.48 3419.54,1918.83 3416.53,1916.74 3413.40,1914.70"/>
    </edge>
    <edge id=":2581591864_2" function="internal">
        <lane id=":2581591864_2_0" index="0" disallow="tram rail_urban rail rail_electric ship" speed="6.58" length="8.22" shape="3416.49,1921.47 3416.90,1919.50 3416.52,1917.72 3415.35,1916.12 3413.40,1914.70"/>
    </edge>
    <edge id=":2581591864_3" function="internal">
        <lane id=":2581591864_3_0" index="0" disallow="tram rail_urban rail rail_electric ship" speed="3.65" length="2.83" shape="3416.49,1921.47 3417.67,1920.64 3418.56,1920.56 3418.89,1920.92"/>
    </edge>
    <edge id=":2581591864_4" function="internal">
        <lane id=":2581591864_4_0" index="0" disallow="tram rail_urban rail rail_electric ship" speed="3.65" length="1.85" shape="3418.89,1920.92 3419.16,1921.22 3419.48,1922.63"/>
    </edge>
    <edge id=":2581591870_0" function="internal">
        <lane id=":2581591870_0_0" index="0" disallow="tram rail_urban rail rail_electric ship" speed="5.86" length="8.88" shape="3419.40,1922.82 3419.01,1924.96 3419.71,1926.54 3421.50,1927.55 3424.38,1928.00"/>
    </edge>
    <edge id=":2581591870_1" function="internal">
        <lane id=":2581591870_1_0" index="0" disallow="tram rail_urban rail rail_electric ship" speed="22.22" length="10.73" shape="3419.40,1922.82 3418.42,1925.72 3418.01,1927.95 3417.92,1930.24 3417.91,1933.34"/>
    </edge>
    <edge id=":2581591870_2" function="internal">
        <lane id=":2581591870_2_0" index="0" disallow="tram rail_urban rail rail_electric ship" speed="3.65" length="2.34" shape="3419.40,1922.82 3418.22,1923.64 3417.33,1923.73"/>
    </edge>
    <edge id=":2581591870_9" function="internal">
        <lane id=":2581591870_9_0" index="0" disallow="tram rail_urban rail rail_electric ship" speed="3.65" length="2.34" shape="3417.33,1923.73 3416.73,1923.07 3416.42,1921.66"/>
    </edge>
    <edge id=":2581591870_3" function="internal">
        <lane id=":2581591870_3_0" index="0" disallow="tram rail_urban rail rail_electric ship" speed="5.80" length="7.63" shape="3409.89,1922.53 3412.22,1923.52 3414.08,1923.70 3415.48,1923.08 3416.42,1921.66"/>
    </edge>
    <edge id=":2581591870_4" function="internal">
        <lane id=":2581591870_4_0" index="0" disallow="tram rail_urban rail rail_electric ship" speed="21.54" length="15.60" shape="3409.89,1922.53 3413.31,1924.36 3416.91,1926.07 3420.63,1927.38 3424.38,1928.00"/>
    </edge>
    <edge id=":2581591870_5" function="internal">
        <lane id=":2581591870_5_0" index="0" disallow="tram rail_urban rail rail_electric ship" speed="9.92" length="14.16" shape="3409.89,1922.53 3413.44,1924.86 3415.96,1927.43 3417.45,1930.26 3417.91,1933.34"/>
    </edge>
    <edge id=":2581591870_6" function="internal">
        <lane id=":2581591870_6_0" index="0" disallow="tram rail_urban rail rail_electric ship" speed="22.22" length="11.85" shape="3414.72,1933.29 3414.76,1930.02 3414.92,1927.35 3415.40,1924.74 3416.42,1921.66"/>
    </edge>
    <edge id=":2581591870_7" function="internal">
        <lane id=":2581591870_7_0" index="0" disallow="tram rail_urban rail rail_electric ship" speed="7.44" length="3.92" shape="3414.72,1933.29 3415.35,1930.80 3416.34,1929.88"/>
    </edge>
    <edge id=":2581591870_8" function="internal">
        <lane id=":2581591870_8_0" index="0" disallow="tram rail_urban rail rail_electric ship" speed="3.65" length="2.34" shape="3414.72,1933.29 3415.53,1932.11 3416.34,1931.72"/>
    </edge>
    <edge id=":2581591870_10" function="internal">
        <lane id=":2581591870_10_0" index="0" disallow="tram rail_urban rail rail_electric ship" speed="7.44" length="8.50" shape="3416.34,1929.88 3417.17,1929.09 3420.18,1928.15 3424.38,1928.00"/>
    </edge>
    <edge id=":2581591870_11" function="internal">
        <lane id=":2581591870_11_0" index="0" disallow="tram rail_urban rail rail_electric ship" speed="3.65" length="2.34" shape="3416.34,1931.72 3417.13,1932.13 3417.91,1933.34"/>
    </edge>
    <edge id=":2581591874_0" function="internal">
        <lane id=":2581591874_0_0" index="0" disallow="tram rail_urban rail rail_electric ship" speed="22.22" length="13.93" shape="3729.22,1929.64 3727.31,1932.70 3725.58,1935.64 3724.21,1938.71 3723.40,1942.16"/>
    </edge>
    <edge id=":2581591874_1" function="internal">
        <lane id=":2581591874_1_0" index="0" disallow="tram rail_urban rail rail_electric ship" speed="8.68" length="3.59" shape="3729.22,1929.64 3727.50,1931.13 3726.22,1931.37"/>
    </edge>
    <edge id=":2581591874_2" function="internal">
        <lane id=":2581591874_2_0" index="0" disallow="tram rail_urban rail rail_electric ship" speed="3.65" length="2.34" shape="3729.22,1929.64 3727.92,1930.25 3727.03,1930.18"/>
    </edge>
    <edge id=":2581591874_9" function="internal">
        <lane id=":2581591874_9_0" index="0" disallow="tram rail_urban rail rail_electric ship" speed="8.68" length="10.55" shape="3726.22,1931.37 3724.71,1931.66 3720.85,1931.23 3715.91,1929.85"/>
    </edge>
    <edge id=":2581591874_10" function="internal">
        <lane id=":2581591874_10_0" index="0" disallow="tram rail_urban rail rail_electric ship" speed="3.65" length="2.34" shape="3727.03,1930.18 3726.55,1929.43 3726.48,1927.99"/>
    </edge>
    <edge id=":2581591874_3" function="internal">
        <lane id=":2581591874_3_0" index="0" disallow="tram rail_urban rail rail_electric ship" speed="5.52" length="11.17" shape="3715.57,1935.01 3719.24,1933.95 3720.52,1932.74 3719.41,1931.37 3715.91,1929.85"/>
    </edge>
    <edge id=":2581591874_4" function="internal">
        <lane id=":2581591874_4_0" index="0" disallow="tram rail_urban rail rail_electric ship" speed="11.56" length="13.35" shape="3715.57,1935.01 3719.11,1934.00 3722.10,1932.49 3724.56,1930.48 3726.48,1927.99"/>
    </edge>
    <edge id=":2581591874_5" function="internal">
        <lane id=":2581591874_5_0" index="0" disallow="tram rail_urban rail rail_electric ship" speed="7.00" length="13.27" shape="3715.57,1935.01 3719.42,1934.78 3722.01,1935.89 3723.33,1938.35 3723.40,1942.16"/>
    </edge>
    <edge id=":2581591874_6" function="internal">
        <lane id=":2581591874_6_0" index="0" disallow="tram rail_urban rail rail_electric ship" speed="8.16" length="12.50" shape="3720.39,1940.41 3720.52,1936.50 3719.82,1933.44 3718.28,1931.22 3715.91,1929.85"/>
    </edge>
    <edge id=":2581591874_7" function="internal">
        <lane id=":2581591874_7_0" index="0" disallow="tram rail_urban rail rail_electric ship" speed="22.22" length="13.96" shape="3720.39,1940.41 3721.24,1936.98 3722.71,1933.95 3724.53,1931.04 3726.48,1927.99"/>
    </edge>
    <edge id=":2581591874_8" function="internal">
        <lane id=":2581591874_8_0" index="0" disallow="tram rail_urban rail rail_electric ship" speed="3.75" length="2.09" shape="3720.39,1940.41 3721.80,1939.72 3722.32,1939.75"/>
    </edge>
    <edge id=":2581591874_11" function="internal">
        <lane id=":2581591874_11_0" index="0" disallow="tram rail_urban rail rail_electric ship" speed="3.75" length="2.98" shape="3722.32,1939.75 3722.76,1939.78 3723.30,1940.59 3723.40,1942.16"/>
    </edge>
    <edge id=":2581591880_0" function="internal">
        <lane id=":2581591880_0_0" index="0" allow="delivery bicycle pedestrian" speed="3.65" length="4.67" shape="3764.61,1943.72 3764.88,1945.14 3764.58,1945.99 3763.73,1946.26 3762.32,1945.96"/>
    </edge>
    <edge id=":2581715805_0" function="internal">
        <lane id=":2581715805_0_0" index="0" disallow="tram rail_urban rail rail_electric ship" speed="22.22" length="14.00" shape="3725.20,1570.30 3722.65,1567.77 3720.34,1565.24 3717.96,1562.81 3715.18,1560.57"/>
    </edge>
    <edge id=":2581715805_1" function="internal">
        <lane id=":2581715805_1_0" index="0" disallow="tram rail_urban rail rail_electric ship" speed="10.30" length="13.56" shape="3725.20,1570.30 3723.14,1567.86 3721.85,1564.97 3721.34,1561.62 3721.60,1557.82"/>
    </edge>
    <edge id=":2581715805_2" function="internal">
        <lane id=":2581715805_2_0" index="0" disallow="tram rail_urban rail rail_electric ship" speed="3.65" length="4.67" shape="3725.20,1570.30 3724.85,1568.91 3725.09,1568.04 3725.92,1567.72 3727.35,1567.93"/>
    </edge>
    <edge id=":2581715805_3" function="internal">
        <lane id=":2581715805_3_0" index="0" disallow="tram rail_urban rail rail_electric ship" speed="9.06" length="10.37" shape="3724.76,1558.33 3724.54,1561.31 3724.89,1563.90 3725.83,1566.11 3727.35,1567.93"/>
    </edge>
    <edge id=":2581715805_4" function="internal">
        <lane id=":2581715805_4_0" index="0" disallow="tram rail_urban rail rail_electric ship" speed="6.67" length="5.32" shape="3724.76,1558.33 3723.68,1561.45 3722.04,1562.63"/>
    </edge>
    <edge id=":2581715805_5" function="internal">
        <lane id=":2581715805_5_0" index="0" disallow="tram rail_urban rail rail_electric ship" speed="3.65" length="2.44" shape="3724.76,1558.33 3723.78,1559.39 3722.92,1559.66 3722.84,1559.59"/>
    </edge>
    <edge id=":2581715805_9" function="internal">
        <lane id=":2581715805_9_0" index="0" disallow="tram rail_urban rail rail_electric ship" speed="6.67" length="7.46" shape="3722.04,1562.63 3721.72,1562.86 3718.89,1562.57 3715.18,1560.57"/>
    </edge>
    <edge id=":2581715805_10" function="internal">
        <lane id=":2581715805_10_0" index="0" disallow="tram rail_urban rail rail_electric ship" speed="3.65" length="2.23" shape="3722.84,1559.59 3722.20,1559.13 3721.60,1557.82"/>
    </edge>
    <edge id=":2581715805_6" function="internal">
        <lane id=":2581715805_6_0" index="0" disallow="tram rail_urban rail rail_electric ship" speed="5.98" length="10.38" shape="3715.90,1568.26 3718.15,1566.66 3718.78,1564.84 3717.79,1562.81 3715.18,1560.57"/>
    </edge>
    <edge id=":2581715805_7" function="internal">
        <lane id=":2581715805_7_0" index="0" disallow="tram rail_urban rail rail_electric ship" speed="10.10" length="12.31" shape="3715.90,1568.26 3717.89,1566.81 3719.50,1564.59 3720.74,1561.59 3721.60,1557.82"/>
    </edge>
    <edge id=":2581715805_8" function="internal">
        <lane id=":2581715805_8_0" index="0" disallow="tram rail_urban rail rail_electric ship" speed="8.73" length="8.71" shape="3715.90,1568.26 3719.49,1566.83 3722.60,1566.30 3724.28,1566.54"/>
    </edge>
    <edge id=":2581715805_11" function="internal">
        <lane id=":2581715805_11_0" index="0" disallow="tram rail_urban rail rail_electric ship" speed="8.73" length="3.43" shape="3724.28,1566.54 3725.21,1566.67 3727.35,1567.93"/>
    </edge>
    <edge id=":2581715806_0" function="internal">
        <lane id=":2581715806_0_0" index="0" disallow="tram rail_urban rail rail_electric ship" speed="22.22" length="9.40" shape="3543.08,1564.78 3552.48,1565.01"/>
    </edge>
    <edge id=":2581715806_1" function="internal">
        <lane id=":2581715806_1_0" index="0" allow="delivery bicycle pedestrian" speed="6.07" length="7.78" shape="3543.08,1564.78 3545.83,1565.04 3547.79,1565.68 3548.94,1566.69 3549.29,1568.07"/>
    </edge>
    <edge id=":2581715806_2" function="internal">
        <lane id=":2581715806_2_0" index="0" disallow="tram rail_urban rail rail_electric ship" speed="6.10" length="7.77" shape="3546.09,1567.97 3546.53,1566.62 3547.74,1565.67 3549.72,1565.14 3552.48,1565.01"/>
    </edge>
    <edge id=":2581715806_3" function="internal">
        <lane id=":2581715806_3_0" index="0" allow="delivery bicycle pedestrian" speed="3.65" length="4.67" shape="3546.09,1567.97 3546.93,1566.80 3547.74,1566.42 3548.53,1566.85 3549.29,1568.07"/>
    </edge>
    <edge id=":2581715810_0" function="internal">
        <lane id=":2581715810_0_0" index="0" disallow="tram rail_urban rail rail_electric ship" speed="22.22" length="9.40" shape="3599.10,1566.18 3608.50,1566.41"/>