<?xml version="1.0" encoding="UTF-8"?>

<!-- generated on Thu Mar 14 19:52:06 2019 by Eclipse SUMO polyconvert Version 1.1.0
<configuration xmlns:xsi="http://www.w3.org/2001/XMLSchema-instance" xsi:noNamespaceSchemaLocation="http://sumo.dlr.de/xsd/polyconvertConfiguration.xsd">

    <input>
        <net-file value="vanet.net.xml"/>
        <osm-files value="vanet.osm"/>
        <type-file value="osmPolyconvert.typ.xml"/>
    </input>

    <output>
        <output-file value="vanet.poly.xml"/>
    </output>

    <processing>
        <poi-layer-offset value="5"/>
    </processing>

</configuration>
-->

<additional xmlns:xsi="http://www.w3.org/2001/XMLSchema-instance" xsi:noNamespaceSchemaLocation="http://sumo.dlr.de/xsd/additional_file.xsd">
    <location netOffset="-567014.25,-1784939.70" convBoundary="-0.00,-0.00,4687.47,2823.14" origBoundary="75.626842,16.143666,75.670680,16.169179" projParameter="+proj=utm +zone=43 +ellps=WGS84 +datum=WGS84 +units=m +no_defs"/>

    <poly id="252040683" type="leisure" color="207,245,201" fill="1" layer="-2.00" shape="3769.958181,1907.532473 4006.763731,1912.753581 4003.875810,2121.844941 3931.297818,2190.119985 3740.858226,2186.298665 3727.173601,2179.639375 3722.374723,2169.214272 3725.257382,2087.306819 3726.869223,1961.721122 3737.022679,1936.122297 3753.021429,1914.734904 3763.521284,1907.766204 3769.958181,1907.532473"/>
    <poly id="252055091" type="residential" color="235,235,227" fill="1" layer="-3.00" shape="3372.448843,1896.677455 3409.383821,1934.473966 3405.732475,2183.442487 3194.832716,2178.808185 3123.818176,2102.948475 3127.057585,1891.646003 3372.448843,1896.677455"/>
    <poly id="252055092" type="residential" color="235,235,227" fill="1" layer="-3.00" shape="3423.052337,1936.221314 3420.845225,2181.510702 3692.174289,2185.212924 3707.599634,2172.518669 3712.323018,1943.664858 3423.052337,1936.221314"/>
    <poly id="252055093" type="residential" color="235,235,227" fill="1" layer="-3.00" shape="3427.814550,1567.351673 3401.112231,1595.906631 3397.776227,1886.724934 3425.624741,1914.149109 3710.193882,1920.869573 3740.343249,1897.591742 3746.986988,1603.586916 3719.000810,1575.741530 3427.814550,1567.351673"/>
    <poly id="252055094" type="residential" color="235,235,227" fill="1" layer="-3.00" shape="3136.865741,1591.788381 3128.732992,1875.854325 3373.295191,1882.763735 3381.420376,1598.708787 3136.865741,1591.788381"/>
    <poly id="252060610" type="residential" color="235,235,227" fill="1" layer="-3.00" shape="3769.437294,1607.431365 4003.553258,1612.212220 4010.493934,1614.922769 4013.560803,1622.034697 4013.822310,1723.211834 4010.496560,1733.378467 4004.685197,1738.536896 3999.664185,1740.633604 3998.792025,1769.049979 4005.546581,1773.098472 4010.162246,1777.339188 4010.917929,1785.018901 4007.666849,1894.625293 3763.118064,1890.197893 3769.437294,1607.431365"/>
    <poly id="252060612" type="residential" color="235,235,227" fill="1" layer="-3.00" shape="3212.816679,1297.152969 3139.655668,1367.198700 3134.078168,1577.464835 3382.933132,1583.690968 3415.013278,1545.097527 3422.847997,1318.554817 3419.323640,1310.667156 3411.423434,1303.716857 3403.226987,1302.473779 3212.816679,1297.152969"/>
    <poly id="252060613" type="residential" color="235,235,227" fill="1" layer="-3.00" shape="3454.854961,1302.959794 3441.686564,1315.196840 3437.401879,1324.398056 3430.322590,1545.356703 3718.328600,1552.032760 3724.452856,1329.732471 3714.445446,1316.458689 3705.588609,1307.790543 3454.854961,1302.959794"/>
    <poly id="252060614" type="residential" color="235,235,227" fill="1" layer="-3.00" shape="3736.602167,1318.598546 3743.765636,1311.906727 3769.465832,1309.301199 3949.881162,1314.107867 4019.576715,1387.853037 4017.198981,1584.633557 4003.444858,1596.105084 3765.466704,1592.075119 3734.091228,1557.614593 3736.602167,1318.598546"/>
    <poi id="1467585255" type="amenity" color="237,199,199" layer="4.00" x="3724.29" y="1688.66"/>
</additional>
