<?xml version="1.0" encoding="UTF-8"?>

<!-- generated on Sun May 19 21:25:56 2019 by Eclipse SUMO polyconvert Version 1.2.0
<configuration xmlns:xsi="http://www.w3.org/2001/XMLSchema-instance" xsi:noNamespaceSchemaLocation="http://sumo.dlr.de/xsd/polyconvertConfiguration.xsd">

    <input>
        <net-file value="map.net.xml"/>
        <osm-files value="map.osm"/>
        <type-file value="osmPolyconvert.typ.xml"/>
    </input>

    <output>
        <output-file value="map.poly.xml"/>
    </output>

    <processing>
        <poi-layer-offset value="5"/>
    </processing>

</configuration>
-->

<additional xmlns:xsi="http://www.w3.org/2001/XMLSchema-instance" xsi:noNamespaceSchemaLocation="http://sumo.dlr.de/xsd/additional_file.xsd">
    <location netOffset="-679477.24,883015.75" convBoundary="-153.81,-0.42,708.08,968.48" origBoundary="112.626985,-7.985192,112.634800,-7.976436" projParameter="+proj=utm +zone=49 +ellps=WGS84 +datum=WGS84 +units=m +no_defs"/>

    <poly id="271994191" type="tourism" color="207,245,201" fill="1" layer="-2.00" shape="219.720483,394.722941 248.562781,386.645989 302.621663,370.871331 344.836502,359.843802 352.158193,354.561505 357.345330,347.573403 359.741897,337.477515 323.417150,173.595412 166.098839,217.040383 211.880040,388.704298 219.720483,394.722941"/>
    <poly id="428365941" type="tourism" color="207,245,201" fill="1" layer="-2.00" shape="226.568839,411.937870 230.956677,400.761339 231.173107,399.731936 230.422114,399.403115 222.843260,400.992480 222.183088,401.326879 221.965784,402.135092 224.328282,411.305266 224.771763,411.933913 225.445540,412.251980 225.996514,412.183445 226.568839,411.937870"/>
    <poly id="428365946" type="building" color="255,230,230" fill="1" layer="-1.00" shape="346.995408,384.431941 346.413374,382.222312 340.399817,383.750209 340.970871,385.970942 336.796651,387.038118 337.737119,390.673026 335.369162,391.279612 342.265899,417.928229 360.581807,413.243912 353.685059,386.595295 351.504349,387.156903 350.563879,383.521995 346.995408,384.431941"/>
    <poly id="428365950" type="building" color="255,230,230" fill="1" layer="-1.00" shape="294.438857,462.300674 241.517560,475.825693 245.178649,489.978637 306.426414,474.330422 307.613316,478.948665 320.169032,475.735958 315.913811,459.108002 310.129131,440.451117 308.190131,440.801633 293.700375,398.212894 277.158055,402.536264 278.947198,408.899552 236.116408,420.305469 240.099660,435.076480 245.881661,433.538454 249.036889,445.227095 243.276892,446.753974 248.199995,465.005061 292.110161,453.318381 294.438857,462.300674"/>
    <poly id="428365968" type="building" color="255,230,230" fill="1" layer="-1.00" shape="147.448035,421.562737 149.505379,428.842917 195.582973,416.030741 193.525621,408.750561 147.448035,421.562737"/>
    <poly id="428366049" type="building" color="255,230,230" fill="1" layer="-1.00" shape="284.123377,399.135532 291.071284,396.907190 288.727667,389.727681 281.790830,391.967038 284.123377,399.135532"/>
    <poly id="428366062" type="building" color="255,230,230" fill="1" layer="-1.00" shape="296.498515,397.659908 306.985038,431.582645 333.623982,423.912501 329.076075,408.546504 327.027791,409.140766 321.463122,390.361356 296.498515,397.659908"/>
    <poly id="428366069" type="building" color="255,230,230" fill="1" layer="-1.00" shape="344.822755,428.845059 347.091578,428.260984 344.941892,419.941563 342.662000,420.514623 337.175855,399.290718 327.902254,401.660980 333.399419,422.884841 335.560172,431.215278 344.822755,428.845059"/>
    <poly id="428366534" type="building" color="255,230,230" fill="1" layer="-1.00" shape="443.474643,331.561094 443.159648,329.969750 452.137885,328.186791 449.484095,315.069473 438.467906,317.269705 438.501637,317.435466 370.597751,330.975731 373.532692,345.496513 376.705363,344.864621 379.201810,357.230504 445.971065,343.915918 443.474643,331.561094"/>
    <poly id="428366535" type="building" color="255,230,230" fill="1" layer="-1.00" shape="117.253632,332.961530 171.159818,317.618953 168.980195,310.084885 171.579142,309.344678 168.415797,298.386006 165.827875,299.126170 163.480566,291.006603 150.860240,294.595558 148.714088,287.160895 107.428225,298.903454 109.574413,306.349177 117.253632,332.961530"/>
    <poly id="428366536" type="building" color="255,230,230" fill="1" layer="-1.00" shape="155.359281,244.599229 153.995564,239.871088 137.895339,244.458102 139.259010,249.175183 149.285768,283.962397 168.623686,278.455697 168.109601,276.699244 172.217226,275.521749 168.271445,261.856556 164.174803,263.022948 158.596957,243.679544 155.359281,244.599229"/>
    <poly id="428366537" type="building" color="255,230,230" fill="1" layer="-1.00" shape="399.369865,268.949923 393.511211,239.963614 369.782336,244.691495 375.910993,275.048134 368.574180,276.503855 370.935791,288.228811 378.272605,286.773089 385.266973,321.373213 408.995847,316.634272 402.945740,286.631231 417.597319,283.719863 414.021395,266.027495 399.369865,268.949923"/>
    <poly id="428366539" type="building" color="255,230,230" fill="1" layer="-1.00" shape="154.348191,407.246412 168.290295,403.342570 163.125033,385.180916 149.182979,389.095817 154.348191,407.246412"/>
    <poly id="428366543" type="building" color="255,230,230" fill="1" layer="-1.00" shape="156.571707,367.290178 163.289446,365.405615 159.085597,350.602296 152.367904,352.497919 156.571707,367.290178"/>
    <poly id="428366544" type="building" color="255,230,230" fill="1" layer="-1.00" shape="165.275719,368.649304 175.429413,365.800032 173.517572,359.072261 163.363879,361.921532 165.275719,368.649304"/>
    <poly id="428366546" type="building" color="255,230,230" fill="1" layer="-1.00" shape="167.324414,354.208367 172.401259,352.783731 170.813593,347.182763 165.736748,348.607399 167.324414,354.208367"/>
    <poly id="428366552" type="building" color="255,230,230" fill="1" layer="-1.00" shape="167.347250,354.407351 168.733674,359.301297 173.832570,357.876574 172.435120,352.982671 167.347250,354.407351"/>
    <poly id="428366553" type="building" color="255,230,230" fill="1" layer="-1.00" shape="160.293147,379.983011 166.757582,378.165806 163.347541,366.157441 156.883109,367.974646 160.293147,379.983011"/>
    <poly id="428366556" type="building" color="255,230,230" fill="1" layer="-1.00" shape="148.706965,285.358200 151.199733,294.019115 171.627921,288.209496 169.135149,279.548581 148.706965,285.358200"/>
    <poly id="428366557" type="building" color="255,230,230" fill="1" layer="-1.00" shape="162.433651,360.874540 168.600765,359.146987 165.638050,348.740504 159.481962,350.468014 162.433651,360.874540"/>
    <poly id="428366565" type="building" color="255,230,230" fill="1" layer="-1.00" shape="167.387258,378.484048 197.462918,370.048346 195.114990,361.773947 165.039336,370.209648 167.387258,378.484048"/>
    <poly id="428366566" type="building" color="255,230,230" fill="1" layer="-1.00" shape="171.863389,347.797955 190.034332,342.705069 188.234222,336.352884 170.063281,341.445770 171.863389,347.797955"/>
    <poly id="428366568" type="building" color="255,230,230" fill="1" layer="-1.00" shape="176.133335,365.376984 194.733769,360.160745 190.172135,344.098040 171.571708,349.314279 176.133335,365.376984"/>
    <poly id="428366573" type="building" color="255,230,230" fill="1" layer="-1.00" shape="169.247103,341.360518 185.303614,336.862150 181.971879,325.141027 185.672118,324.097857 183.536678,316.585734 134.100761,330.450794 141.874994,353.202953 170.376288,345.326470 169.247103,341.360518"/>
    <poly id="428366574" type="building" color="255,230,230" fill="1" layer="-1.00" shape="181.277803,397.805667 210.692735,389.560584 206.936152,376.348088 177.521229,384.593170 177.096302,383.079677 165.951427,386.198296 170.669452,402.780187 181.803307,399.661612 181.277803,397.805667"/>
    <poly id="428477326" type="building" color="255,230,230" fill="1" layer="-1.00" shape="175.157733,138.038681 182.233215,162.518900 195.965727,158.604802 220.358271,151.651392 213.282767,127.171175 188.901261,134.124540 188.018291,131.086626 186.300366,131.580041 184.299498,124.642489 173.584390,127.693067 175.585256,134.630619 174.285788,135.000723 175.157733,138.038681"/>
    <poly id="428477330" type="building" color="255,230,230" fill="1" layer="-1.00" shape="291.639741,158.702085 294.746251,158.070458 295.949249,163.971557 307.483034,161.636591 306.280078,155.746552 308.637522,155.272722 301.543773,120.617696 284.557030,124.047016 286.288378,132.522925 270.546456,135.704003 269.590816,131.018488 252.515959,134.470263 258.845385,165.434386 275.920297,161.993671 273.750330,151.329685 289.492301,148.159666 291.639741,158.702085"/>
    <poly id="428477331" type="building" color="255,230,230" fill="1" layer="-1.00" shape="161.400209,152.360002 172.487638,207.249464 183.294504,205.094360 162.480280,102.056447 151.673439,104.211551 160.624209,148.492192 154.752912,149.743016 153.360416,143.311804 152.666430,143.458322 150.061155,131.435719 134.991870,134.647269 138.315830,149.984926 138.943613,152.614642 130.681972,154.383652 129.807758,150.770602 118.308798,153.547770 133.784002,216.792048 145.283022,214.025938 131.589523,158.062929 139.741005,156.316473 141.616387,164.979827 138.961670,165.554359 142.431531,181.543959 149.338278,180.067852 150.124471,183.725489 156.865979,182.283213 156.068761,178.625620 160.915641,177.600037 157.456755,161.599335 157.335571,161.621933 155.595059,153.610566 161.400209,152.360002"/>
    <poly id="428477367" type="building" color="255,230,230" fill="1" layer="-1.00" shape="271.036426,181.544335 272.129571,184.758372 279.660570,182.229109 278.567425,179.015072 271.036426,181.544335"/>
    <poly id="428477373" type="building" color="255,230,230" fill="1" layer="-1.00" shape="191.913570,193.337064 248.330314,177.254494 239.857600,147.946733 183.440893,164.029299 191.913570,193.337064"/>
    <poly id="428657051" type="building" color="255,230,230" fill="1" layer="-1.00" shape="362.780968,188.812616 358.662242,189.968056 363.346781,206.428415 367.465509,205.272975 362.780968,188.812616"/>
    <poly id="428657073" type="building" color="255,230,230" fill="1" layer="-1.00" shape="358.012223,190.081224 354.301103,191.157633 359.028864,207.396628 362.751054,206.331235 358.012223,190.081224"/>
    <poly id="428657115" type="building" color="255,230,230" fill="1" layer="-1.00" shape="372.747416,186.019329 363.056236,188.723050 368.624373,208.376155 378.315514,205.661374 372.747416,186.019329"/>
    <poly id="428657122" type="building" color="255,230,230" fill="1" layer="-1.00" shape="348.842923,210.445152 353.424339,209.199406 352.540657,205.984541 347.970222,207.219184 348.842923,210.445152"/>
    <poly id="428657129" type="building" color="255,230,230" fill="1" layer="-1.00" shape="368.312240,235.374018 401.676213,227.699321 397.033128,207.788184 363.669214,215.473941 368.312240,235.374018"/>
    <poly id="428657134" type="building" color="255,230,230" fill="1" layer="-1.00" shape="349.411880,242.792402 363.235542,239.618893 356.775453,211.873646 342.940819,215.058258 349.411880,242.792402"/>
    <poly id="428657137" type="building" color="255,230,230" fill="1" layer="-1.00" shape="353.816366,191.248028 349.169023,192.549334 353.797779,208.844019 358.445124,207.542713 353.816366,191.248028"/>
    <poly id="428657153" type="building" color="255,230,230" fill="1" layer="-1.00" shape="348.948923,192.649742 341.195723,194.748569 344.764180,207.773790 352.517426,205.686022 348.948923,192.649742"/>
    <poi id="1517525792" type="tourism" color="207,245,201" layer="3.00" x="269.51" y="285.01"/>
    <poi id="1747534824" type="amenity" color="237,199,199" layer="4.00" x="158.11" y="318.93"/>
    <poi id="1812240599" type="amenity" color="237,199,199" layer="4.00" x="212.42" y="183.99"/>
    <poi id="3925479166" type="amenity" color="237,199,199" layer="4.00" x="340.22" y="391.63"/>
    <poi id="5307617023" type="amenity" color="237,199,199" layer="4.00" x="280.27" y="405.21"/>
</additional>
