<?xml version="1.0" encoding="UTF-8"?>

<!-- generated on Sun May 19 21:28:16 2019 by Eclipse SUMO duarouter Version 1.2.0
<configuration xmlns:xsi="http://www.w3.org/2001/XMLSchema-instance" xsi:noNamespaceSchemaLocation="http://sumo.dlr.de/xsd/duarouterConfiguration.xsd">

    <input>
        <net-file value="map.net.xml"/>
        <route-files value="trips.trips.xml"/>
    </input>

    <output>
        <output-file value="map.rou.xml"/>
        <alternatives-output value="map.rou.alt.xml"/>
    </output>

    <time>
        <begin value="0"/>
        <end value="50.0"/>
    </time>

    <report>
        <no-warnings value="true"/>
        <ignore-errors value="true"/>
        <no-step-log value="true"/>
    </report>

</configuration>
-->

<routes xmlns:xsi="http://www.w3.org/2001/XMLSchema-instance" xsi:noNamespaceSchemaLocation="http://sumo.dlr.de/xsd/routes_file.xsd">
    <vehicle id="0" depart="0.00">
        <route edges="449488385#0 244776493 244776494#1"/>
    </vehicle>
    <vehicle id="5" depart="5.00">
        <route edges="244776491#0"/>
    </vehicle>
    <vehicle id="7" depart="7.00">
        <route edges="-244501647 287880910 153305938 149724034"/>
    </vehicle>
    <vehicle id="8" depart="8.00">
        <route edges="449488385#0 244776493 244776494#1 244501646 153305938 244501649#0 -587396877"/>
    </vehicle>
    <vehicle id="10" depart="10.00">
        <route edges="244776491#0"/>
    </vehicle>
    <vehicle id="11" depart="11.00">
        <route edges="57941580#0 57941580#1 287872788 287872789 560925671"/>
    </vehicle>
    <vehicle id="12" depart="12.00">
        <route edges="57941580#0 57941580#1 244776491#0"/>
    </vehicle>
    <vehicle id="19" depart="19.00">
        <route edges="449488385#0 244776493 244776494#1"/>
    </vehicle>
    <vehicle id="24" depart="24.00">
        <route edges="244501649#1 560925671"/>
    </vehicle>
    <vehicle id="25" depart="25.00">
        <route edges="57941580#0 57941580#1 358613340 244776494#0 244776494#1 244501646 153305938 244501649#0 244501649#1"/>
    </vehicle>
    <vehicle id="26" depart="26.00">
        <route edges="57941580#0 57941580#1 358613340 244776494#0 244776494#1 244776495 244501647"/>
    </vehicle>
    <vehicle id="31" depart="31.00">
        <route edges="449488385#0 449488385#1 449488385#2 153305940 287872789 560925671"/>
    </vehicle>
    <vehicle id="32" depart="32.00">
        <route edges="-244501647 287880910 153305938 238268069"/>
    </vehicle>
    <vehicle id="33" depart="33.00">
        <route edges="244776491#0"/>
    </vehicle>
    <vehicle id="39" depart="39.00">
        <route edges="57941580#0 57941580#1 244776491#0"/>
    </vehicle>
    <vehicle id="42" depart="42.00">
        <route edges="287872789 560925671"/>
    </vehicle>
    <vehicle id="44" depart="44.00">
        <route edges="57941580#0 57941580#1 358613340 244776494#0 244776494#1 244501646 153305938"/>
    </vehicle>
    <vehicle id="46" depart="46.00">
        <route edges="244776491#0"/>
    </vehicle>
    <vehicle id="47" depart="47.00">
        <route edges="244776491#0"/>
    </vehicle>
    <vehicle id="48" depart="48.00">
        <route edges="57941580#0 57941580#1 358613340 244776494#0 244776494#1 244501646 153305938 238268069"/>
    </vehicle>
    <vehicle id="49" depart="49.00">
        <route edges="244776491#0"/>
    </vehicle>
</routes>
