<?xml version="1.0" encoding="UTF-8"?>

<!-- generated on Sun May 19 21:25:22 2019 by Eclipse SUMO netconvert Version 1.2.0
<configuration xmlns:xsi="http://www.w3.org/2001/XMLSchema-instance" xsi:noNamespaceSchemaLocation="http://sumo.dlr.de/xsd/netconvertConfiguration.xsd">

    <input>
        <osm-files value="map.osm"/>
    </input>

    <output>
        <output-file value="map.net.xml"/>
    </output>

    <projection>
        <proj.utm value="true"/>
    </projection>

</configuration>
-->

<net version="1.1" junctionCornerDetail="5" limitTurnSpeed="5.50" xmlns:xsi="http://www.w3.org/2001/XMLSchema-instance" xsi:noNamespaceSchemaLocation="http://sumo.dlr.de/xsd/net_file.xsd">

    <location netOffset="-679477.24,883015.75" convBoundary="0.00,0.00,613.63,968.48" origBoundary="112.628382,-7.985187,112.633954,-7.976436" projParameter="+proj=utm +zone=49 +ellps=WGS84 +datum=WGS84 +units=m +no_defs"/>

    <type id="highway.bridleway" priority="1" numLanes="1" speed="2.78" allow="pedestrian" oneway="1" width="2.00"/>
    <type id="highway.bus_guideway" priority="1" numLanes="1" speed="27.78" allow="bus" oneway="1"/>
    <type id="highway.cycleway" priority="1" numLanes="1" speed="8.33" allow="bicycle" oneway="0" width="1.00"/>
    <type id="highway.footway" priority="1" numLanes="1" speed="2.78" allow="pedestrian" oneway="1" width="2.00"/>
    <type id="highway.ford" priority="1" numLanes="1" speed="2.78" allow="army" oneway="0"/>
    <type id="highway.living_street" priority="2" numLanes="1" speed="2.78" disallow="tram rail_urban rail rail_electric ship" oneway="0"/>
    <type id="highway.motorway" priority="14" numLanes="2" speed="39.44" allow="private emergency authority army vip passenger hov taxi bus coach delivery truck trailer motorcycle evehicle custom1 custom2" oneway="1"/>
    <type id="highway.motorway_link" priority="9" numLanes="1" speed="22.22" allow="private emergency authority army vip passenger hov taxi bus coach delivery truck trailer motorcycle evehicle custom1 custom2" oneway="1"/>
    <type id="highway.path" priority="1" numLanes="1" speed="2.78" allow="bicycle pedestrian" oneway="1" width="2.00"/>
    <type id="highway.pedestrian" priority="1" numLanes="1" speed="2.78" allow="pedestrian" oneway="1" width="2.00"/>
    <type id="highway.primary" priority="12" numLanes="2" speed="27.78" disallow="tram rail_urban rail rail_electric ship" oneway="0"/>
    <type id="highway.primary_link" priority="7" numLanes="1" speed="22.22" disallow="tram rail_urban rail rail_electric ship" oneway="0"/>
    <type id="highway.raceway" priority="15" numLanes="2" speed="83.33" allow="vip" oneway="0"/>
    <type id="highway.residential" priority="3" numLanes="1" speed="13.89" disallow="tram rail_urban rail rail_electric ship" oneway="0"/>
    <type id="highway.secondary" priority="11" numLanes="2" speed="27.78" disallow="tram rail_urban rail rail_electric ship" oneway="0"/>
    <type id="highway.secondary_link" priority="6" numLanes="1" speed="22.22" disallow="tram rail_urban rail rail_electric ship" oneway="0"/>
    <type id="highway.service" priority="1" numLanes="1" speed="5.56" allow="delivery bicycle pedestrian" oneway="0"/>
    <type id="highway.stairs" priority="1" numLanes="1" speed="1.39" allow="pedestrian" oneway="1" width="2.00"/>
    <type id="highway.step" priority="1" numLanes="1" speed="1.39" allow="pedestrian" oneway="1" width="2.00"/>
    <type id="highway.steps" priority="1" numLanes="1" speed="1.39" allow="pedestrian" oneway="1" width="2.00"/>
    <type id="highway.tertiary" priority="10" numLanes="1" speed="22.22" disallow="tram rail_urban rail rail_electric ship" oneway="0"/>
    <type id="highway.tertiary_link" priority="5" numLanes="1" speed="22.22" disallow="tram rail_urban rail rail_electric ship" oneway="0"/>
    <type id="highway.track" priority="1" numLanes="1" speed="5.56" disallow="tram rail_urban rail rail_electric ship" oneway="0"/>
    <type id="highway.trunk" priority="13" numLanes="2" speed="27.78" disallow="tram rail_urban rail rail_electric bicycle pedestrian ship" oneway="0"/>
    <type id="highway.trunk_link" priority="8" numLanes="1" speed="22.22" disallow="tram rail_urban rail rail_electric bicycle pedestrian ship" oneway="0"/>
    <type id="highway.unclassified" priority="4" numLanes="1" speed="13.89" disallow="tram rail_urban rail rail_electric ship" oneway="0"/>
    <type id="highway.unsurfaced" priority="1" numLanes="1" speed="8.33" disallow="tram rail_urban rail rail_electric ship" oneway="0"/>
    <type id="railway.light_rail" priority="19" numLanes="1" speed="27.78" allow="rail_urban" oneway="1"/>
    <type id="railway.preserved" priority="16" numLanes="1" speed="27.78" allow="rail" oneway="1"/>
    <type id="railway.rail" priority="20" numLanes="1" speed="83.33" allow="rail rail_electric" oneway="1"/>
    <type id="railway.subway" priority="18" numLanes="1" speed="27.78" allow="rail_urban" oneway="1"/>
    <type id="railway.tram" priority="17" numLanes="1" speed="13.89" allow="tram" oneway="1"/>

    <edge id=":1621247434_0" function="internal">
        <lane id=":1621247434_0_0" index="0" disallow="tram rail_urban rail rail_electric ship" speed="6.35" length="9.04" shape="323.59,182.79 322.76,180.42 321.38,178.95 319.45,178.38 316.97,178.69"/>
    </edge>
    <edge id=":1621247434_1" function="internal">
        <lane id=":1621247434_1_0" index="0" disallow="tram rail_urban rail rail_electric ship" speed="7.18" length="11.87" shape="323.59,182.79 322.47,179.05 320.86,176.61 318.74,175.46 316.11,175.61"/>
    </edge>
    <edge id=":1621247434_2" function="internal">
        <lane id=":1621247434_2_0" index="0" disallow="tram rail_urban rail rail_electric ship" speed="7.96" length="14.83" shape="323.59,182.79 322.19,177.68 320.34,174.26 318.03,172.54 315.26,172.52"/>
    </edge>
    <edge id=":1621247434_3" function="internal">
        <lane id=":1621247434_3_0" index="0" disallow="tram rail_urban rail rail_electric ship" speed="27.78" length="17.76" shape="323.59,182.79 319.79,165.51"/>
        <lane id=":1621247434_3_1" index="1" disallow="tram rail_urban rail rail_electric ship" speed="27.78" length="17.76" shape="326.73,182.17 322.90,164.75"/>
    </edge>
    <edge id=":1621247434_5" function="internal">
        <lane id=":1621247434_5_0" index="0" disallow="tram rail_urban rail rail_electric ship" speed="7.77" length="12.40" shape="326.73,182.17 326.29,178.12 326.76,175.00 328.13,172.81 330.40,171.55"/>
    </edge>
    <edge id=":2520489311_0" function="internal">
        <lane id=":2520489311_0_0" index="0" disallow="tram rail_urban rail rail_electric ship" speed="27.78" length="14.64" shape="231.87,387.99 245.95,384.07"/>
        <lane id=":2520489311_0_1" index="1" disallow="tram rail_urban rail rail_electric ship" speed="27.78" length="14.64" shape="232.74,391.07 246.84,387.14"/>
        <lane id=":2520489311_0_2" index="2" disallow="tram rail_urban rail rail_electric ship" speed="27.78" length="14.64" shape="233.60,394.15 247.74,390.21"/>
    </edge>
    <edge id=":2520489311_3" function="internal">
        <lane id=":2520489311_3_0" index="0" disallow="tram rail_urban rail rail_electric ship" speed="15.30" length="15.39" shape="236.62,399.00 238.41,395.76 240.03,392.39 242.49,389.35 246.84,387.14"/>
        <lane id=":2520489311_3_1" index="1" disallow="tram rail_urban rail rail_electric ship" speed="14.50" length="15.39" shape="236.62,399.00 238.65,396.21 240.74,393.84 243.55,391.86 247.74,390.21"/>
    </edge>
    <edge id=":2520489313_0" function="internal">
        <lane id=":2520489313_0_0" index="0" disallow="tram rail_urban rail rail_electric ship" speed="13.19" length="14.45" shape="220.06,403.50 219.21,399.64 218.33,396.98 216.76,394.75 213.84,392.22"/>
        <lane id=":2520489313_0_1" index="1" disallow="tram rail_urban rail rail_electric ship" speed="14.22" length="14.45" shape="223.18,402.80 222.17,398.31 221.12,395.22 219.25,392.66 215.82,389.71"/>
    </edge>
    <edge id=":2520489313_2" function="internal">
        <lane id=":2520489313_2_0" index="0" disallow="tram rail_urban rail rail_electric ship" speed="27.78" length="12.55" shape="214.02,394.84 217.51,393.48 219.77,392.23 222.04,391.00 225.55,389.76"/>
        <lane id=":2520489313_2_1" index="1" disallow="tram rail_urban rail rail_electric ship" speed="27.78" length="12.55" shape="214.99,397.89 218.44,396.54 220.68,395.29 222.93,394.08 226.42,392.84"/>
        <lane id=":2520489313_2_2" index="2" disallow="tram rail_urban rail rail_electric ship" speed="27.78" length="12.55" shape="214.99,397.89 218.57,397.03 221.11,396.83 223.66,396.68 227.28,395.92"/>
    </edge>
    <edge id=":2520489314_0" function="internal">
        <lane id=":2520489314_0_0" index="0" disallow="tram rail_urban rail rail_electric ship" speed="27.78" length="9.44" shape="224.67,424.91 222.20,413.03"/>
        <lane id=":2520489314_0_1" index="1" disallow="tram rail_urban rail rail_electric ship" speed="27.78" length="9.44" shape="227.83,424.41 226.48,417.79"/>
    </edge>
    <edge id=":2520489314_2" function="internal">
        <lane id=":2520489314_2_0" index="0" disallow="tram rail_urban rail rail_electric ship" speed="15.20" length="14.13" shape="227.83,424.41 227.42,420.03 227.75,416.72 228.68,413.84 230.10,410.77"/>
    </edge>
    <edge id=":2520489318_0" function="internal">
        <lane id=":2520489318_0_0" index="0" disallow="tram rail_urban rail rail_electric ship" speed="9.37" length="8.28" shape="346.41,356.12 348.01,355.43 348.81,354.47 349.41,353.20 350.38,351.58"/>
        <lane id=":2520489318_0_1" index="1" disallow="tram rail_urban rail rail_electric ship" speed="10.85" length="8.28" shape="347.21,359.22 349.46,358.33 350.69,357.15 351.64,355.55 353.02,353.39"/>
        <lane id=":2520489318_0_2" index="2" disallow="tram rail_urban rail rail_electric ship" speed="11.70" length="8.28" shape="348.02,362.31 350.71,361.33 352.28,360.08 353.51,358.32 355.18,355.85"/>
    </edge>
    <edge id=":2520489318_3" function="internal">
        <lane id=":2520489318_3_0" index="0" disallow="tram rail_urban rail rail_electric ship" speed="9.61" length="8.85" shape="348.02,362.31 350.62,361.81 352.93,361.72 354.93,362.06 356.63,362.82"/>
    </edge>
    <edge id=":2520489319_0" function="internal">
        <lane id=":2520489319_0_0" index="0" disallow="tram rail_urban rail rail_electric ship" speed="25.00" length="26.42" shape="362.49,355.34 362.02,350.52 361.52,344.02 360.67,336.63 359.17,329.16"/>
    </edge>
    <edge id=":2520489319_1" function="internal">
        <lane id=":2520489319_1_0" index="0" disallow="tram rail_urban rail rail_electric ship" speed="14.20" length="24.29" shape="350.50,351.42 353.97,345.88 356.05,340.46 356.76,335.16 356.08,329.99"/>
        <lane id=":2520489319_1_1" index="1" disallow="tram rail_urban rail rail_electric ship" speed="15.02" length="24.29" shape="353.14,353.23 356.96,347.09 359.23,341.04 359.97,335.06 359.17,329.16"/>
    </edge>
    <edge id=":2520489320_0" function="internal">
        <lane id=":2520489320_0_0" index="0" disallow="tram rail_urban rail rail_electric ship" speed="22.22" length="11.35" shape="363.67,372.93 363.31,369.79 363.46,367.29 363.67,364.78 363.46,361.62"/>
    </edge>
    <edge id=":2520489320_1" function="internal">
        <lane id=":2520489320_1_0" index="0" disallow="tram rail_urban rail rail_electric ship" speed="3.65" length="1.97" shape="363.67,372.93 364.20,371.59 364.62,371.26"/>
    </edge>
    <edge id=":2520489320_3" function="internal">
        <lane id=":2520489320_3_0" index="0" disallow="tram rail_urban rail rail_electric ship" speed="3.65" length="2.70" shape="364.62,371.26 364.90,371.03 365.77,371.26 366.80,372.27"/>
    </edge>
    <edge id=":2520489320_2" function="internal">
        <lane id=":2520489320_2_0" index="0" disallow="tram rail_urban rail rail_electric ship" speed="11.22" length="11.95" shape="358.50,364.00 361.85,366.29 364.35,368.43 366.00,370.42 366.80,372.27"/>
    </edge>
    <edge id=":2520517375_0" function="internal">
        <lane id=":2520517375_0_0" index="0" disallow="tram rail_urban rail rail_electric ship" speed="6.95" length="10.29" shape="166.89,225.87 165.72,222.94 164.12,221.04 162.10,220.18 159.65,220.35"/>
    </edge>
    <edge id=":2520517375_1" function="internal">
        <lane id=":2520517375_1_0" index="0" disallow="tram rail_urban rail rail_electric ship" speed="8.36" length="15.37" shape="169.98,225.02 168.25,220.81 165.82,218.11 162.69,216.93 158.86,217.25"/>
    </edge>
    <edge id=":2520517375_2" function="internal">
        <lane id=":2520517375_2_0" index="0" disallow="tram rail_urban rail rail_electric ship" speed="27.78" length="14.33" shape="173.82,218.22 169.67,219.11 166.75,219.33 163.82,219.53 159.65,220.35"/>
        <lane id=":2520517375_2_1" index="1" disallow="tram rail_urban rail rail_electric ship" speed="27.78" length="14.33" shape="172.97,215.14 168.84,216.02 165.93,216.24 163.01,216.43 158.86,217.25"/>
    </edge>
    <edge id=":2664559180_0" function="internal">
        <lane id=":2664559180_0_0" index="0" disallow="tram rail_urban rail rail_electric ship" speed="27.78" length="0.26" shape="109.12,952.18 109.13,952.39"/>
        <lane id=":2664559180_0_1" index="1" disallow="tram rail_urban rail rail_electric ship" speed="27.78" length="0.26" shape="105.92,952.32 105.94,952.63"/>
    </edge>
    <edge id=":2914385626_0" function="internal">
        <lane id=":2914385626_0_0" index="0" disallow="tram rail_urban rail rail_electric ship" speed="27.78" length="2.92" shape="222.16,412.83 222.13,412.71"/>
        <lane id=":2914385626_0_1" index="1" disallow="tram rail_urban rail rail_electric ship" speed="27.78" length="2.92" shape="226.44,417.59 225.25,412.00"/>
    </edge>
    <edge id=":2914385627_0" function="internal">
        <lane id=":2914385627_0_0" index="0" disallow="tram rail_urban rail rail_electric ship" speed="7.11" length="7.53" shape="204.65,397.70 206.73,396.87 208.27,395.77 209.28,394.41 209.76,392.78"/>
    </edge>
    <edge id=":2914385627_1" function="internal">
        <lane id=":2914385627_1_0" index="0" disallow="tram rail_urban rail rail_electric ship" speed="8.00" length="9.71" shape="204.65,397.70 208.18,396.52 210.74,395.37 212.32,394.25 212.94,393.17"/>
    </edge>
    <edge id=":2914385627_2" function="internal">
        <lane id=":2914385627_2_0" index="0" disallow="tram rail_urban rail rail_electric ship" speed="27.78" length="9.62" shape="204.65,397.70 213.83,394.90"/>
        <lane id=":2914385627_2_1" index="1" disallow="tram rail_urban rail rail_electric ship" speed="27.78" length="9.62" shape="205.57,400.77 214.80,397.95"/>
    </edge>
    <edge id=":2914385627_4" function="internal">
        <lane id=":2914385627_4_0" index="0" disallow="tram rail_urban rail rail_electric ship" speed="6.61" length="9.60" shape="205.57,400.77 208.77,400.10 211.22,400.22 212.90,401.15 213.84,402.86"/>
    </edge>
    <edge id=":2914385627_5" function="internal">
        <lane id=":2914385627_5_0" index="0" disallow="tram rail_urban rail rail_electric ship" speed="5.69" length="6.82" shape="205.57,400.77 207.43,400.49 208.91,400.88 210.01,401.95 210.74,403.68"/>
    </edge>
    <edge id=":2914385628_0" function="internal">
        <lane id=":2914385628_0_0" index="0" disallow="tram rail_urban rail rail_electric ship" speed="10.04" length="5.99" shape="213.68,392.10 212.03,390.82 210.98,389.80 210.28,388.54 209.68,386.58"/>
        <lane id=":2914385628_0_1" index="1" disallow="tram rail_urban rail rail_electric ship" speed="8.48" length="5.99" shape="215.67,389.59 214.50,388.71 213.73,388.01 213.21,387.15 212.78,385.78"/>
    </edge>
    <edge id=":2914385628_2" function="internal">
        <lane id=":2914385628_2_0" index="0" disallow="tram rail_urban rail rail_electric ship" speed="17.31" length="6.67" shape="209.79,392.58 210.03,390.79 210.15,389.55 210.06,388.32 209.68,386.58"/>
        <lane id=":2914385628_2_1" index="1" disallow="tram rail_urban rail rail_electric ship" speed="18.93" length="6.67" shape="212.96,392.97 213.25,390.83 213.37,389.34 213.25,387.87 212.78,385.78"/>
    </edge>
    <edge id=":3707997777_0" function="internal">
        <lane id=":3707997777_0_0" index="0" disallow="tram rail_urban rail rail_electric ship" speed="3.65" length="4.67" shape="380.27,436.16 379.74,437.50 379.04,438.06 378.17,437.83 377.14,436.82"/>
    </edge>
    <edge id=":5610905579_0" function="internal">
        <lane id=":5610905579_0_0" index="0" disallow="tram rail_urban rail rail_electric ship" speed="27.78" length="9.39" shape="270.37,191.56 261.31,194.06"/>
        <lane id=":5610905579_0_1" index="1" disallow="tram rail_urban rail rail_electric ship" speed="27.78" length="9.39" shape="269.52,188.48 260.46,190.98"/>
        <lane id=":5610905579_0_2" index="2" disallow="tram rail_urban rail rail_electric ship" speed="27.78" length="9.39" shape="268.67,185.39 259.61,187.89"/>
    </edge>
    <edge id=":5610905579_3" function="internal">
        <lane id=":5610905579_3_0" index="0" disallow="tram rail_urban rail rail_electric ship" speed="6.13" length="7.78" shape="268.67,185.39 265.97,185.94 263.91,185.89 262.50,185.27 261.74,184.06"/>
    </edge>
    <edge id=":5610905579_4" function="internal">
        <lane id=":5610905579_4_0" index="0" disallow="tram rail_urban rail rail_electric ship" speed="6.85" length="10.24" shape="264.81,183.16 265.21,185.94 264.62,188.17 263.04,189.85 260.46,190.98"/>
    </edge>
    <edge id=":5610905579_5" function="internal">
        <lane id=":5610905579_5_0" index="0" disallow="tram rail_urban rail rail_electric ship" speed="6.06" length="7.80" shape="264.81,183.16 264.82,184.60 263.96,185.86 262.22,186.96 259.61,187.89"/>
    </edge>
    <edge id=":5610905579_6" function="internal">
        <lane id=":5610905579_6_0" index="0" disallow="tram rail_urban rail rail_electric ship" speed="3.65" length="4.67" shape="264.81,183.16 264.38,184.53 263.73,185.14 262.85,184.98 261.74,184.06"/>
    </edge>
    <edge id=":5610905581_0" function="internal">
        <lane id=":5610905581_0_0" index="0" disallow="tram rail_urban rail rail_electric ship" speed="3.65" length="4.67" shape="199.40,121.80 198.08,121.21 197.55,120.50 197.81,119.64 198.86,118.64"/>
    </edge>
    <edge id=":719014680_0" function="internal">
        <lane id=":719014680_0_0" index="0" disallow="tram rail_urban rail rail_electric ship" speed="27.78" length="0.30" shape="200.58,398.92 200.86,398.83"/>
        <lane id=":719014680_0_1" index="1" disallow="tram rail_urban rail rail_electric ship" speed="27.78" length="0.30" shape="201.49,401.99 201.78,401.90"/>
    </edge>

    <edge id="-244501647" from="3707997777" to="2520489320" priority="10" type="highway.tertiary">
        <lane id="-244501647_0" index="0" disallow="tram rail_urban rail rail_electric ship" speed="22.22" length="65.30" shape="377.14,436.82 363.67,372.93"/>
    </edge>
    <edge id="-587396877" from="5610905579" to="5610905581" priority="3" type="highway.residential" shape="265.07,189.70 242.42,112.71 199.13,120.22">
        <lane id="-587396877_0" index="0" disallow="tram rail_urban rail rail_electric ship" speed="13.89" length="114.99" shape="261.74,184.06 241.28,114.53 199.40,121.80"/>
    </edge>
    <edge id="149724034" from="1621247434" to="1616963728" priority="10" type="highway.tertiary" spreadType="center" shape="323.41,173.59 402.17,150.63 418.75,145.63 484.25,125.86 570.78,100.56 575.90,98.96 613.63,87.12">
        <lane id="149724034_0" index="0" disallow="tram rail_urban rail rail_electric ship" speed="22.22" length="295.56" shape="330.40,171.55 402.17,150.63 418.75,145.63 484.25,125.86 570.78,100.56 575.90,98.96 613.63,87.12"/>
    </edge>
    <edge id="153305938" from="2520489319" to="1621247434" priority="11" type="highway.secondary" spreadType="center" shape="359.74,337.47 344.07,278.97 323.41,173.59">
        <lane id="153305938_0" index="0" disallow="tram rail_urban rail rail_electric ship" speed="27.78" length="150.71" acceleration="1" shape="356.08,329.99 342.51,279.33 323.59,182.79"/>
        <lane id="153305938_1" index="1" disallow="tram rail_urban rail rail_electric ship" speed="27.78" length="150.71" shape="359.17,329.16 345.63,278.61 326.73,182.17"/>
    </edge>
    <edge id="153305940" from="2520489313" to="2914385628" priority="11" type="highway.secondary" spreadType="center">
        <lane id="153305940_0" index="0" disallow="tram rail_urban rail rail_electric ship" speed="27.78" length="0.20" shape="213.84,392.22 213.68,392.10"/>
        <lane id="153305940_1" index="1" disallow="tram rail_urban rail rail_electric ship" speed="27.78" length="0.20" shape="215.82,389.71 215.67,389.59"/>
    </edge>
    <edge id="238268069" from="1621247434" to="1617002971" priority="11" type="highway.secondary" spreadType="center">
        <lane id="238268069_0" index="0" disallow="tram rail_urban rail rail_electric ship" speed="27.78" length="169.99" shape="319.79,165.51 279.43,0.38"/>
        <lane id="238268069_1" index="1" disallow="tram rail_urban rail rail_electric ship" speed="27.78" length="169.99" shape="322.90,164.75 282.54,-0.38"/>
    </edge>
    <edge id="244501646" from="2520489318" to="2520489319" priority="11" type="highway.secondary" spreadType="center" shape="344.83,359.84 352.16,354.56 357.34,347.57 359.74,337.47">
        <lane id="244501646_0" index="0" disallow="tram rail_urban rail rail_electric ship" speed="27.78" length="0.74" shape="350.38,351.58 350.50,351.42"/>
        <lane id="244501646_1" index="1" disallow="tram rail_urban rail rail_electric ship" speed="27.78" length="0.74" shape="353.02,353.39 353.14,353.23"/>
        <lane id="244501646_2" index="2" disallow="tram rail_urban rail rail_electric ship" speed="27.78" length="0.74" shape="355.18,355.85 356.27,354.39"/>
    </edge>
    <edge id="244501647" from="2520489320" to="3707997777" priority="10" type="highway.tertiary">
        <lane id="244501647_0" index="0" disallow="tram rail_urban rail rail_electric ship" speed="22.22" length="65.30" shape="366.80,372.27 380.27,436.16"/>
    </edge>
    <edge id="244501649#0" from="1621247434" to="5610905579" priority="11" type="highway.secondary" spreadType="center" shape="323.41,173.59 268.70,188.70 265.07,189.70">
        <lane id="244501649#0_0" index="0" disallow="tram rail_urban rail rail_electric ship" speed="27.78" length="48.34" shape="316.97,178.69 270.37,191.56"/>
        <lane id="244501649#0_1" index="1" disallow="tram rail_urban rail rail_electric ship" speed="27.78" length="48.34" shape="316.11,175.61 269.52,188.48"/>
        <lane id="244501649#0_2" index="2" disallow="tram rail_urban rail rail_electric ship" speed="27.78" length="48.34" shape="315.26,172.52 268.67,185.39"/>
    </edge>
    <edge id="244501649#1" from="5610905579" to="2520517375" priority="11" type="highway.secondary" spreadType="center">
        <lane id="244501649#1_0" index="0" disallow="tram rail_urban rail rail_electric ship" speed="27.78" length="90.76" shape="261.31,194.06 173.82,218.22"/>
        <lane id="244501649#1_1" index="1" disallow="tram rail_urban rail rail_electric ship" speed="27.78" length="90.76" shape="260.46,190.98 172.97,215.14"/>
        <lane id="244501649#1_2" index="2" disallow="tram rail_urban rail rail_electric ship" speed="27.78" length="90.76" shape="259.61,187.89 172.12,212.05"/>
    </edge>
    <edge id="244776491#0" from="2914385627" to="2664559180" priority="11" type="highway.secondary" spreadType="center" shape="210.79,397.54 215.11,414.01 224.82,469.58 225.97,518.76 220.18,531.44 207.11,550.30 190.65,566.78 153.61,603.83 138.52,625.62 125.74,649.97 119.40,676.08 118.09,687.09 116.92,699.62 113.38,734.69 106.63,801.47 105.33,830.95 103.69,868.21 107.53,952.38">
        <lane id="244776491#0_0" index="0" disallow="tram rail_urban rail rail_electric ship" speed="27.78" length="587.13" shape="213.84,402.86 216.67,413.67 226.42,469.43 227.58,519.09 221.58,532.23 208.35,551.33 191.78,567.91 154.84,604.86 139.89,626.45 127.24,650.54 120.98,676.37 119.68,687.26 118.52,699.77 114.97,734.85 108.23,801.59 106.92,831.02 105.29,868.21 109.12,952.18"/>
        <lane id="244776491#0_1" index="1" disallow="tram rail_urban rail rail_electric ship" speed="27.78" length="587.13" shape="210.74,403.68 213.54,414.35 223.22,469.74 224.37,518.43 218.78,530.64 205.88,549.27 189.52,565.65 152.38,602.80 137.15,624.79 124.23,649.40 117.82,675.80 116.50,686.93 115.33,699.46 111.79,734.53 105.04,801.36 103.73,830.88 102.09,868.21 105.92,952.32"/>
    </edge>
    <edge id="244776491#1" from="2664559180" to="2415624984" priority="11" type="highway.secondary" spreadType="center">
        <lane id="244776491#1_0" index="0" disallow="tram rail_urban rail rail_electric ship" speed="27.78" length="16.02" shape="109.13,952.39 110.33,968.36"/>
        <lane id="244776491#1_1" index="1" disallow="tram rail_urban rail rail_electric ship" speed="27.78" length="16.02" shape="105.94,952.63 107.14,968.60"/>
    </edge>
    <edge id="244776493" from="2520489314" to="2520489311" priority="6" type="highway.secondary_link" spreadType="center" shape="226.07,423.55 229.95,411.09 234.18,402.30 239.05,395.71 248.56,386.64">
        <lane id="244776493_0" index="0" disallow="tram rail_urban rail rail_electric ship" speed="22.22" length="13.51" shape="230.10,410.77 234.18,402.30 236.62,399.00"/>
    </edge>
    <edge id="244776494#0" from="2520489313" to="2520489311" priority="11" type="highway.secondary" spreadType="center">
        <lane id="244776494#0_0" index="0" disallow="tram rail_urban rail rail_electric ship" speed="27.78" length="6.56" shape="225.55,389.76 231.87,387.99"/>
        <lane id="244776494#0_1" index="1" disallow="tram rail_urban rail rail_electric ship" speed="27.78" length="6.56" shape="226.42,392.84 232.74,391.07"/>
        <lane id="244776494#0_2" index="2" disallow="tram rail_urban rail rail_electric ship" speed="27.78" length="6.56" shape="227.28,395.92 233.60,394.15"/>
    </edge>
    <edge id="244776494#1" from="2520489311" to="2520489318" priority="11" type="highway.secondary" spreadType="center" shape="248.56,386.64 302.62,370.87 305.27,370.17 344.83,359.84">
        <lane id="244776494#1_0" index="0" disallow="tram rail_urban rail rail_electric ship" speed="27.78" length="104.19" acceleration="1" shape="245.95,384.07 301.73,367.79 304.46,367.07 346.41,356.12"/>
        <lane id="244776494#1_1" index="1" disallow="tram rail_urban rail rail_electric ship" speed="27.78" length="104.19" acceleration="1" shape="246.84,387.14 302.62,370.87 305.27,370.17 347.21,359.22"/>
        <lane id="244776494#1_2" index="2" disallow="tram rail_urban rail rail_electric ship" speed="27.78" length="104.19" shape="247.74,390.21 303.51,373.94 306.08,373.27 348.02,362.31"/>
    </edge>
    <edge id="244776495" from="2520489318" to="2520489320" priority="10" type="highway.tertiary" spreadType="center" shape="344.83,359.84 351.00,360.71 356.03,362.45 359.29,364.49 364.94,371.23">
        <lane id="244776495_0" index="0" disallow="tram rail_urban rail rail_electric ship" speed="22.22" length="2.21" shape="356.63,362.82 358.50,364.00"/>
    </edge>
    <edge id="287872788" from="2914385627" to="2914385628" priority="11" type="highway.secondary" spreadType="center">
        <lane id="287872788_0" index="0" disallow="tram rail_urban rail rail_electric ship" speed="27.78" length="0.20" shape="209.76,392.78 209.79,392.58"/>
        <lane id="287872788_1" index="1" disallow="tram rail_urban rail rail_electric ship" speed="27.78" length="0.20" shape="212.94,393.17 212.96,392.97"/>
    </edge>
    <edge id="287872789" from="2914385628" to="2520517375" priority="11" type="highway.secondary" spreadType="center" shape="211.88,388.70 187.32,293.38 166.10,217.04">
        <lane id="287872789_0" index="0" disallow="tram rail_urban rail rail_electric ship" speed="27.78" length="166.34" shape="209.68,386.58 185.78,293.80 166.89,225.87"/>
        <lane id="287872789_1" index="1" disallow="tram rail_urban rail rail_electric ship" speed="27.78" length="166.34" shape="212.78,385.78 188.87,292.97 169.98,225.02"/>
    </edge>
    <edge id="287880910" from="2520489320" to="2520489319" priority="10" type="highway.tertiary" spreadType="center">
        <lane id="287880910_0" index="0" disallow="tram rail_urban rail rail_electric ship" speed="22.22" length="6.35" shape="363.46,361.62 362.49,355.34"/>
    </edge>
    <edge id="358613340" from="2914385627" to="2520489313" priority="11" type="highway.secondary" spreadType="center">
        <lane id="358613340_0" index="0" disallow="tram rail_urban rail rail_electric ship" speed="27.78" length="0.20" shape="213.83,394.90 214.02,394.84"/>
        <lane id="358613340_1" index="1" disallow="tram rail_urban rail rail_electric ship" speed="27.78" length="0.20" shape="214.80,397.95 214.99,397.89"/>
    </edge>
    <edge id="449488385#0" from="2415624993" to="2520489314" priority="11" type="highway.secondary" spreadType="center" shape="236.79,521.25 234.82,492.56 233.20,468.86 226.07,423.55">
        <lane id="449488385#0_0" index="0" disallow="tram rail_urban rail rail_electric ship" speed="27.78" length="97.26" shape="235.19,521.36 233.23,492.67 231.60,469.04 224.67,424.91"/>
        <lane id="449488385#0_1" index="1" disallow="tram rail_urban rail rail_electric ship" speed="27.78" length="97.26" shape="238.38,521.14 236.42,492.45 234.79,468.68 227.83,424.41"/>
    </edge>
    <edge id="449488385#1" from="2520489314" to="2914385626" priority="11" type="highway.secondary" spreadType="center">
        <lane id="449488385#1_0" index="0" disallow="tram rail_urban rail rail_electric ship" speed="27.78" length="0.20" shape="222.20,413.03 222.16,412.83"/>
        <lane id="449488385#1_1" index="1" disallow="tram rail_urban rail rail_electric ship" speed="27.78" length="0.20" shape="226.48,417.79 226.44,417.59"/>
    </edge>