<?xml version="1.0" encoding="UTF-8"?>

<!-- generated on Fri Mar 15 11:12:41 2019 by Eclipse SUMO polyconvert Version 1.1.0
<configuration xmlns:xsi="http://www.w3.org/2001/XMLSchema-instance" xsi:noNamespaceSchemaLocation="http://sumo.dlr.de/xsd/polyconvertConfiguration.xsd">

    <input>
        <net-file value="map.net.xml"/>
        <osm-files value="map.osm"/>
        <type-file value="osmPolyconvert.typ.xml"/>
    </input>

    <output>
        <output-file value="map.poly.xml"/>
    </output>

    <processing>
        <poi-layer-offset value="5"/>
    </processing>

</configuration>
-->

<additional xmlns:xsi="http://www.w3.org/2001/XMLSchema-instance" xsi:noNamespaceSchemaLocation="http://sumo.dlr.de/xsd/additional_file.xsd">
    <location netOffset="-679201.62,883015.75" convBoundary="-287.75,-0.42,983.70,981.64" origBoundary="112.623274,-7.985192,112.634800,-7.976326" projParameter="+proj=utm +zone=49 +ellps=WGS84 +datum=WGS84 +units=m +no_defs"/>

    <poly id="151347033" type="water" color="181,209,209" fill="0" layer="-4.00" shape="298.507057,731.193719 299.353121,722.088297 298.130563,711.221496 298.394057,702.560758 303.370340,689.612399 306.429459,679.757246 308.560803,658.304191 307.637657,647.878594 303.884640,632.763819 302.603763,626.675013 305.738608,616.454591 308.430146,605.649758 312.375277,594.021562 316.023937,579.906117 316.849688,565.658040 317.385300,550.526336 315.293984,537.428916 312.208519,523.848797 309.517063,515.122306 310.003923,507.190621 312.084350,497.980786 318.173155,493.167924 325.552355,485.684592 335.443487,466.589775 338.973339,453.105192 334.160817,423.749783 328.137002,403.136275 321.539387,393.562556 304.463303,343.673575 297.759226,321.094137 283.900757,295.910750 274.293509,269.615675 272.529381,230.482571 271.921295,210.500201 270.970759,170.799843 262.976663,134.223995 254.042340,108.025802 248.135174,86.228455 244.034477,52.855591"/>
    <poly id="271994191" type="tourism" color="207,245,201" fill="1" layer="-2.00" shape="495.340483,394.722941 524.182781,386.645989 578.241663,370.871331 620.456502,359.843802 627.778193,354.561505 632.965330,347.573403 635.361897,337.477515 599.037150,173.595412 441.718839,217.040383 487.500040,388.704298 495.340483,394.722941"/>
    <poly id="325122555" type="building" color="255,230,230" fill="1" layer="-1.00" shape="79.427284,204.845209 115.942103,193.807442 109.799312,173.747381 73.284509,184.785146 79.427284,204.845209"/>
    <poly id="325122559" type="building" color="255,230,230" fill="1" layer="-1.00" shape="87.437691,217.642789 107.115610,211.692508 103.954884,201.375279 84.276970,207.325559 87.437691,217.642789"/>
    <poly id="428365941" type="tourism" color="207,245,201" fill="1" layer="-2.00" shape="502.188839,411.937870 506.576677,400.761339 506.793107,399.731936 506.042114,399.403115 498.463260,400.992480 497.803088,401.326879 497.585784,402.135092 499.948282,411.305266 500.391763,411.933913 501.065540,412.251980 501.616514,412.183445 502.188839,411.937870"/>
    <poly id="428365943" type="amenity" color="237,199,199" fill="1" layer="-1.00" shape="537.297010,507.995959 564.478228,500.832453 563.560731,497.429707 572.878496,495.070342 574.786486,492.452720 573.556054,487.978425 570.773311,486.850282 561.378462,489.232070 560.718164,486.746259 533.536955,493.909764 537.297010,507.995959"/>
    <poly id="428365943#1" type="building" color="255,230,230" fill="1" layer="-1.00" shape="537.297010,507.995959 564.478228,500.832453 563.560731,497.429707 572.878496,495.070342 574.786486,492.452720 573.556054,487.978425 570.773311,486.850282 561.378462,489.232070 560.718164,486.746259 533.536955,493.909764 537.297010,507.995959"/>
    <poly id="428365946" type="building" color="255,230,230" fill="1" layer="-1.00" shape="622.615408,384.431941 622.033374,382.222312 616.019817,383.750209 616.590871,385.970942 612.416651,387.038118 613.357119,390.673026 610.989162,391.279612 617.885899,417.928229 636.201807,413.243912 629.305059,386.595295 627.124349,387.156903 626.183879,383.521995 622.615408,384.431941"/>
    <poly id="428365949" type="building" color="255,230,230" fill="1" layer="-1.00" shape="422.861726,427.944968 424.502096,427.352326 422.618512,422.194912 417.301036,424.107119 418.850338,428.370022 416.890688,429.074521 427.947333,459.433813 478.154780,445.477237 475.616589,436.484711 430.541133,449.016438 426.216610,437.155460 427.559749,436.674589 424.829022,429.175877 423.485883,429.656748 422.861726,427.944968"/>
    <poly id="428365950" type="building" color="255,230,230" fill="1" layer="-1.00" shape="570.058857,462.300674 517.137560,475.825693 520.798649,489.978637 582.046414,474.330422 583.233316,478.948665 595.789032,475.735958 591.533811,459.108002 585.749131,440.451117 583.810131,440.801633 569.320375,398.212894 552.778055,402.536264 554.567198,408.899552 511.736408,420.305469 515.719660,435.076480 521.501661,433.538454 524.656889,445.227095 518.896892,446.753974 523.819995,465.005061 567.730161,453.318381 570.058857,462.300674"/>
    <poly id="428365951" type="building" color="255,230,230" fill="1" layer="-1.00" shape="580.296049,500.084219 579.019288,495.046064 570.703683,497.124976 572.293990,503.389513 569.573453,504.052788 573.113593,518.283628 580.030500,516.575214 580.288092,517.591684 601.556581,512.364853 601.265214,511.171562 618.700755,506.888888 619.137719,508.656705 632.046410,505.486833 625.907131,480.803838 625.136097,480.983841 622.010374,468.399253 586.521142,479.555006 590.778241,496.658520 599.248193,494.578994 596.873292,485.066021 616.715547,478.827329 617.712539,482.815923 612.987422,483.973753 616.348250,497.464304 598.912756,501.758037 597.456229,495.868999 580.296049,500.084219"/>
    <poly id="428365957" type="building" color="255,230,230" fill="1" layer="-1.00" shape="567.296184,485.769123 582.836638,481.792564 581.459473,476.456196 565.919021,480.432755 567.296184,485.769123"/>
    <poly id="428365958" type="building" color="255,230,230" fill="1" layer="-1.00" shape="576.563833,493.042915 588.557246,489.821375 586.308474,481.535525 574.315019,484.746005 576.563833,493.042915"/>
    <poly id="428365959" type="building" color="255,230,230" fill="1" layer="-1.00" shape="444.728416,515.539469 459.373080,510.858679 444.383713,464.566913 429.739064,469.247702 444.728416,515.539469"/>
    <poly id="428365968" type="building" color="255,230,230" fill="1" layer="-1.00" shape="423.068035,421.562737 425.125379,428.842917 471.202973,416.030741 469.145621,408.750561 423.068035,421.562737"/>
    <poly id="428365970" type="building" color="255,230,230" fill="1" layer="-1.00" shape="416.875838,464.388033 419.375875,472.097790 447.288785,463.172979 444.788743,455.463222 416.875838,464.388033"/>
    <poly id="428365983" type="building" color="255,230,230" fill="1" layer="-1.00" shape="411.521944,437.545300 417.874349,435.275097 414.240485,425.214114 407.888037,427.473256 411.521944,437.545300"/>
    <poly id="428365992" type="building" color="255,230,230" fill="1" layer="-1.00" shape="618.022842,452.555474 641.955789,446.433307 636.425052,425.087922 612.503098,431.198986 618.022842,452.555474"/>
    <poly id="428366020" type="building" color="255,230,230" fill="1" layer="-1.00" shape="584.379278,431.387616 591.419020,455.171218 614.908049,448.309824 607.868294,424.526223 584.379278,431.387616"/>
    <poly id="428366022" type="building" color="255,230,230" fill="1" layer="-1.00" shape="426.619732,458.266735 418.537450,435.681685 411.017908,438.332526 419.089162,460.917620 426.619732,458.266735"/>
    <poly id="428366030" type="building" color="255,230,230" fill="1" layer="-1.00" shape="435.429666,444.573266 475.152862,433.522558 471.116162,419.172024 431.381910,430.211715 435.429666,444.573266"/>
    <poly id="428366049" type="building" color="255,230,230" fill="1" layer="-1.00" shape="559.743377,399.135532 566.691284,396.907190 564.347667,389.727681 557.410830,391.967038 559.743377,399.135532"/>
    <poly id="428366062" type="building" color="255,230,230" fill="1" layer="-1.00" shape="572.118515,397.659908 582.605038,431.582645 609.243982,423.912501 604.696075,408.546504 602.647791,409.140766 597.083122,390.361356 572.118515,397.659908"/>
    <poly id="428366063" type="building" color="255,230,230" fill="1" layer="-1.00" shape="600.726871,464.247570 595.396532,465.695343 597.410113,473.053112 620.824077,466.722877 616.517484,451.046255 598.455960,455.939688 600.726871,464.247570"/>
    <poly id="428366064" type="building" color="255,230,230" fill="1" layer="-1.00" shape="633.677944,505.447201 652.072112,501.028007 653.676525,494.131493 639.357717,497.572382 628.375084,452.514533 621.204663,454.235019 633.677944,505.447201"/>
    <poly id="428366069" type="building" color="255,230,230" fill="1" layer="-1.00" shape="620.442755,428.845059 622.711578,428.260984 620.561892,419.941563 618.282000,420.514623 612.795855,399.290718 603.522254,401.660980 609.019419,422.884841 611.180172,431.215278 620.442755,428.845059"/>
    <poly id="428366532" type="building" color="255,230,230" fill="1" layer="-1.00" shape="702.489995,398.139609 692.999180,351.184661 679.966988,353.779947 649.584276,359.839183 660.379595,413.280991 666.024704,441.239599 722.846440,429.910886 715.885710,395.465463 702.489995,398.139609"/>
    <poly id="428366532#1" type="shop" color="237,199,255" fill="1" layer="-1.00" shape="702.489995,398.139609 692.999180,351.184661 679.966988,353.779947 649.584276,359.839183 660.379595,413.280991 666.024704,441.239599 722.846440,429.910886 715.885710,395.465463 702.489995,398.139609"/>
    <poly id="428366534" type="building" color="255,230,230" fill="1" layer="-1.00" shape="719.094643,331.561094 718.779648,329.969750 727.757885,328.186791 725.104095,315.069473 714.087906,317.269705 714.121637,317.435466 646.217751,330.975731 649.152692,345.496513 652.325363,344.864621 654.821810,357.230504 721.591065,343.915918 719.094643,331.561094"/>
    <poly id="428366535" type="building" color="255,230,230" fill="1" layer="-1.00" shape="392.873632,332.961530 446.779818,317.618953 444.600195,310.084885 447.199142,309.344678 444.035797,298.386006 441.447875,299.126170 439.100566,291.006603 426.480240,294.595558 424.334088,287.160895 383.048225,298.903454 385.194413,306.349177 392.873632,332.961530"/>
    <poly id="428366536" type="building" color="255,230,230" fill="1" layer="-1.00" shape="430.979281,244.599229 429.615564,239.871088 413.515339,244.458102 414.879010,249.175183 424.905768,283.962397 444.243686,278.455697 443.729601,276.699244 447.837226,275.521749 443.891445,261.856556 439.794803,263.022948 434.216957,243.679544 430.979281,244.599229"/>
    <poly id="428366537" type="building" color="255,230,230" fill="1" layer="-1.00" shape="674.989865,268.949923 669.131211,239.963614 645.402336,244.691495 651.530993,275.048134 644.194180,276.503855 646.555791,288.228811 653.892605,286.773089 660.886973,321.373213 684.615847,316.634272 678.565740,286.631231 693.217319,283.719863 689.641395,266.027495 674.989865,268.949923"/>
    <poly id="428366538" type="building" color="255,230,230" fill="1" layer="-1.00" shape="403.637257,364.505360 416.705424,359.852921 413.606472,351.238639 400.538265,355.880019 403.637257,364.505360"/>
    <poly id="428366539" type="building" color="255,230,230" fill="1" layer="-1.00" shape="429.968191,407.246412 443.910295,403.342570 438.745033,385.180916 424.802979,389.095817 429.968191,407.246412"/>
    <poly id="428366543" type="building" color="255,230,230" fill="1" layer="-1.00" shape="432.191707,367.290178 438.909446,365.405615 434.705597,350.602296 427.987904,352.497919 432.191707,367.290178"/>
    <poly id="428366544" type="building" color="255,230,230" fill="1" layer="-1.00" shape="440.895719,368.649304 451.049413,365.800032 449.137572,359.072261 438.983879,361.921532 440.895719,368.649304"/>
    <poly id="428366545" type="building" color="255,230,230" fill="1" layer="-1.00" shape="410.935607,350.519254 415.196755,349.131023 411.380469,337.544530 407.119279,338.921701 410.935607,350.519254"/>
    <poly id="428366546" type="building" color="255,230,230" fill="1" layer="-1.00" shape="442.944414,354.208367 448.021259,352.783731 446.433593,347.182763 441.356748,348.607399 442.944414,354.208367"/>
    <poly id="428366547" type="building" color="255,230,230" fill="1" layer="-1.00" shape="406.024393,368.753894 417.837665,364.593037 416.299257,360.296911 404.497011,364.457725 406.024393,368.753894"/>
    <poly id="428366548" type="building" color="255,230,230" fill="1" layer="-1.00" shape="423.801183,378.305559 432.509549,375.185511 429.700601,367.421677 420.992236,370.541724 423.801183,378.305559"/>
    <poly id="428366552" type="building" color="255,230,230" fill="1" layer="-1.00" shape="442.967250,354.407351 444.353674,359.301297 449.452570,357.876574 448.055120,352.982671 442.967250,354.407351"/>
    <poly id="428366553" type="building" color="255,230,230" fill="1" layer="-1.00" shape="435.913147,379.983011 442.377582,378.165806 438.967541,366.157441 432.503109,367.974646 435.913147,379.983011"/>
    <poly id="428366555" type="building" color="255,230,230" fill="1" layer="-1.00" shape="408.858590,374.537953 419.340232,370.979577 417.399691,365.357882 406.918050,368.916259 408.858590,374.537953"/>
    <poly id="428366556" type="building" color="255,230,230" fill="1" layer="-1.00" shape="424.326965,285.358200 426.819733,294.019115 447.247921,288.209496 444.755149,279.548581 424.326965,285.358200"/>
    <poly id="428366557" type="building" color="255,230,230" fill="1" layer="-1.00" shape="438.053651,360.874540 444.220765,359.146987 441.258050,348.740504 435.101962,350.468014 438.053651,360.874540"/>
    <poly id="428366564" type="building" color="255,230,230" fill="1" layer="-1.00" shape="405.587906,353.150457 410.367740,351.892893 406.025706,335.597068 401.234892,336.865734 405.587906,353.150457"/>
    <poly id="428366565" type="building" color="255,230,230" fill="1" layer="-1.00" shape="443.007258,378.484048 473.082918,370.048346 470.734990,361.773947 440.659336,370.209648 443.007258,378.484048"/>
    <poly id="428366566" type="building" color="255,230,230" fill="1" layer="-1.00" shape="447.483389,347.797955 465.654332,342.705069 463.854222,336.352884 445.683281,341.445770 447.483389,347.797955"/>
    <poly id="428366568" type="building" color="255,230,230" fill="1" layer="-1.00" shape="451.753335,365.376984 470.353769,360.160745 465.792135,344.098040 447.191708,349.314279 451.753335,365.376984"/>
    <poly id="428366570" type="building" color="255,230,230" fill="1" layer="-1.00" shape="417.664444,359.815953 420.097893,367.415377 429.545525,364.447244 427.123099,356.847777 417.664444,359.815953"/>
    <poly id="428366571" type="building" color="255,230,230" fill="1" layer="-1.00" shape="406.925933,415.565818 424.975765,410.506612 423.667652,405.899907 427.731321,404.755769 423.918714,391.311240 401.805222,397.514583 405.617822,410.959112 406.925933,415.565818"/>
    <poly id="428366573" type="building" color="255,230,230" fill="1" layer="-1.00" shape="444.867103,341.360518 460.923614,336.862150 457.591879,325.141027 461.292118,324.097857 459.156678,316.585734 409.720761,330.450794 417.494994,353.202953 445.996288,345.326470 444.867103,341.360518"/>
    <poly id="428366574" type="building" color="255,230,230" fill="1" layer="-1.00" shape="456.897803,397.805667 486.312735,389.560584 482.556152,376.348088 453.141229,384.593170 452.716302,383.079677 441.571427,386.198296 446.289452,402.780187 457.423307,399.661612 456.897803,397.805667"/>
    <poly id="428414418" type="building" color="255,230,230" fill="1" layer="-1.00" shape="403.444023,379.779496 409.367984,377.898073 407.559741,372.275856 401.635781,374.157279 402.405967,376.554180 401.293824,376.901422 400.545993,374.581850 394.765179,376.418468 396.361242,381.355825 402.131032,379.519251 401.930054,378.878585 403.042196,378.531343 403.444023,379.779496"/>
    <poly id="428414419" type="building" color="255,230,230" fill="1" layer="-1.00" shape="386.139408,341.835848 394.529798,339.159449 392.833159,333.879640 384.431702,336.545023 386.139408,341.835848"/>
    <poly id="428414420" type="building" color="255,230,230" fill="1" layer="-1.00" shape="306.624760,271.224385 315.356511,268.447113 313.157744,261.643056 304.437020,264.420284 306.624760,271.224385"/>
    <poly id="428414421" type="building" color="255,230,230" fill="1" layer="-1.00" shape="287.368731,283.510260 289.603949,282.793618 288.130612,278.220744 285.895351,278.926326 287.368731,283.510260"/>
    <poly id="428414422" type="building" color="255,230,230" fill="1" layer="-1.00" shape="383.524967,335.862907 392.025472,333.152894 390.596703,328.701501 382.096198,331.411514 383.524967,335.862907"/>
    <poly id="428414423" type="building" color="255,230,230" fill="1" layer="-1.00" shape="299.861875,351.024285 302.978026,350.038733 300.712238,343.013747 297.607156,344.010314 299.861875,351.024285"/>
    <poly id="428414424" type="building" color="255,230,230" fill="1" layer="-1.00" shape="331.596895,332.849641 339.392737,330.374674 335.073198,316.976384 327.277358,319.451351 331.596895,332.849641"/>
    <poly id="428414425" type="building" color="255,230,230" fill="1" layer="-1.00" shape="294.148954,330.962531 298.751561,329.495546 295.950039,320.813729 291.347433,322.280714 294.148954,330.962531"/>
    <poly id="428414426" type="building" color="255,230,230" fill="1" layer="-1.00" shape="301.469053,330.856213 298.705258,331.729777 301.462201,340.290114 304.214973,339.416593 301.469053,330.856213"/>
    <poly id="428414427" type="building" color="255,230,230" fill="1" layer="-1.00" shape="325.304149,313.929322 330.941810,312.137516 327.928017,302.748721 322.290358,304.540526 325.304149,313.929322"/>
    <poly id="428414428" type="building" color="255,230,230" fill="1" layer="-1.00" shape="400.878629,372.269070 404.875622,370.992481 401.906523,361.758345 397.898505,363.034978 400.878629,372.269070"/>
    <poly id="428414429" type="building" color="255,230,230" fill="1" layer="-1.00" shape="306.947676,288.785821 311.561347,287.329850 309.429427,280.702483 304.815801,282.169514 306.947676,288.785821"/>
    <poly id="428414430" type="building" color="255,230,230" fill="1" layer="-1.00" shape="371.856175,337.523706 380.400736,334.802462 378.614896,329.268634 370.070336,331.989878 371.856175,337.523706"/>
    <poly id="428414431" type="building" color="255,230,230" fill="1" layer="-1.00" shape="321.736626,348.582211 326.141052,347.182363 323.473349,338.887106 319.057900,340.286996 321.736626,348.582211"/>
    <poly id="428414432" type="building" color="255,230,230" fill="1" layer="-1.00" shape="280.061150,295.162794 282.549631,294.367735 280.707851,288.623993 278.219370,289.419052 280.061150,295.162794"/>
    <poly id="428414433" type="building" color="255,230,230" fill="1" layer="-1.00" shape="347.272750,321.296765 355.531059,318.676192 353.678113,312.899317 345.419805,315.519889 347.272750,321.296765"/>
    <poly id="428414434" type="building" color="255,230,230" fill="1" layer="-1.00" shape="301.412402,330.469349 304.593524,340.355168 308.095015,339.235379 304.913935,329.360619 301.412402,330.469349"/>
    <poly id="428414435" type="building" color="255,230,230" fill="1" layer="-1.00" shape="288.727430,278.594415 293.583294,277.049012 290.681155,268.013684 285.814267,269.559130 288.727430,278.594415"/>
    <poly id="428414436" type="building" color="255,230,230" fill="1" layer="-1.00" shape="393.369168,293.742066 404.071896,290.337651 396.448218,266.622708 385.734471,270.027165 393.369168,293.742066"/>
    <poly id="428414437" type="building" color="255,230,230" fill="1" layer="-1.00" shape="317.723350,320.606102 325.199866,318.231935 322.933988,311.184830 315.457473,313.558997 317.723350,320.606102"/>
    <poly id="428414438" type="building" color="255,230,230" fill="1" layer="-1.00" shape="326.457275,346.296343 331.511329,344.683797 328.932915,336.664678 323.878818,338.266165 326.457275,346.296343"/>
    <poly id="428414439" type="building" color="255,230,230" fill="1" layer="-1.00" shape="340.719173,280.999185 352.622106,277.214014 346.728689,258.911460 334.825717,262.685571 340.719173,280.999185"/>
    <poly id="428414440" type="building" color="255,230,230" fill="1" layer="-1.00" shape="378.230978,310.225440 384.518309,308.231988 381.136277,297.727624 374.848991,299.732136 378.230978,310.225440"/>
    <poly id="428414441" type="building" color="255,230,230" fill="1" layer="-1.00" shape="311.036306,313.510097 323.434749,309.568145 321.872118,304.719132 309.473676,308.661084 311.036306,313.510097"/>
    <poly id="428414442" type="building" color="255,230,230" fill="1" layer="-1.00" shape="295.543495,301.615796 299.375330,300.395166 297.288036,293.900338 293.445132,295.109952 295.543495,301.615796"/>
    <poly id="428414443" type="building" color="255,230,230" fill="1" layer="-1.00" shape="376.173457,297.315902 382.879200,295.188080 378.403336,281.292726 371.708620,283.420504 376.173457,297.315902"/>
    <poly id="428414444" type="building" color="255,230,230" fill="1" layer="-1.00" shape="337.839249,305.507670 343.774226,303.626211 342.099992,298.434790 336.176041,300.316206 337.839249,305.507670"/>
    <poly id="428414445" type="building" color="255,230,230" fill="1" layer="-1.00" shape="306.961959,297.987387 313.029057,296.061172 310.807848,289.157666 304.740751,291.083882 306.961959,297.987387"/>
    <poly id="428414446" type="building" color="255,230,230" fill="1" layer="-1.00" shape="340.167198,314.313012 345.122156,312.734034 342.566226,304.825423 337.622249,306.393298 340.167198,314.313012"/>
    <poly id="428414447" type="building" color="255,230,230" fill="1" layer="-1.00" shape="388.055415,383.113938 393.263644,381.456538 391.913052,377.259207 386.693799,378.916651 388.055415,383.113938"/>
    <poly id="428414448" type="building" color="255,230,230" fill="1" layer="-1.00" shape="403.400164,335.187173 409.588406,333.227288 408.181990,328.853224 401.993792,330.824169 403.400164,335.187173"/>
    <poly id="428414449" type="building" color="255,230,230" fill="1" layer="-1.00" shape="304.599598,353.062673 310.105142,351.315631 307.147175,342.103569 301.641676,343.861670 304.599598,353.062673"/>
    <poly id="428414450" type="building" color="255,230,230" fill="1" layer="-1.00" shape="312.469826,288.454346 319.252655,286.304111 316.049174,276.340963 309.266391,278.502258 312.469826,288.454346"/>
    <poly id="428414451" type="building" color="255,230,230" fill="1" layer="-1.00" shape="401.479754,393.268964 411.896257,389.965220 408.726220,380.101478 398.298694,383.405266 401.479754,393.268964"/>
    <poly id="428414452" type="building" color="255,230,230" fill="1" layer="-1.00" shape="390.381299,349.527666 396.624579,347.545446 395.530701,344.143396 389.287465,346.136675 390.381299,349.527666"/>
    <poly id="428414453" type="building" color="255,230,230" fill="1" layer="-1.00" shape="356.204585,288.226331 365.713456,284.019286 363.547013,277.027088 353.514653,279.886923 356.204585,288.226331"/>
    <poly id="428414454" type="building" color="255,230,230" fill="1" layer="-1.00" shape="369.986392,330.275964 376.648085,328.159379 375.431408,324.370726 368.769716,326.487312 369.986392,330.275964"/>
    <poly id="428414455" type="building" color="255,230,230" fill="1" layer="-1.00" shape="389.422327,268.641201 407.502463,262.896172 401.307511,243.621563 383.216358,249.366634 389.422327,268.641201"/>
    <poly id="428414456" type="building" color="255,230,230" fill="1" layer="-1.00" shape="361.778400,331.679780 368.759417,329.462397 367.029357,324.094243 360.048385,326.322685 361.778400,331.679780"/>
    <poly id="428414457" type="building" color="255,230,230" fill="1" layer="-1.00" shape="383.999729,296.964257 393.359148,293.996477 388.827415,279.913330 379.456974,282.881153 383.999729,296.964257"/>
    <poly id="428414458" type="building" color="255,230,230" fill="1" layer="-1.00" shape="376.503252,347.315257 384.034808,344.918743 380.898333,335.176525 373.366735,337.561979 376.503252,347.315257"/>
    <poly id="428414459" type="building" color="255,230,230" fill="1" layer="-1.00" shape="387.853639,376.689081 392.390189,375.244467 389.521582,366.330664 384.984989,367.764218 387.853639,376.689081"/>
    <poly id="428414460" type="building" color="255,230,230" fill="1" layer="-1.00" shape="344.326274,340.120856 351.923934,337.713027 348.932622,328.434740 341.334964,330.842568 344.326274,340.120856"/>
    <poly id="428414461" type="building" color="255,230,230" fill="1" layer="-1.00" shape="365.791480,273.069929 386.724088,266.572646 381.506890,246.420462 359.462765,253.419818 365.791480,273.069929"/>
    <poly id="428414462" type="building" color="255,230,230" fill="1" layer="-1.00" shape="300.450764,282.374763 304.701013,281.019764 300.102331,266.726745 295.852084,268.081744 300.450764,282.374763"/>
    <poly id="428414463" type="building" color="255,230,230" fill="1" layer="-1.00" shape="309.394495,308.152653 316.694832,305.834481 315.355360,301.659225 308.055067,303.988457 309.394495,308.152653"/>
    <poly id="428414464" type="building" color="255,230,230" fill="1" layer="-1.00" shape="395.991822,374.356528 399.900793,373.124526 396.987604,364.089243 393.089703,365.332261 395.991822,374.356528"/>
    <poly id="428414465" type="building" color="255,230,230" fill="1" layer="-1.00" shape="352.302661,338.695840 354.934335,337.867032 352.869299,331.427415 350.226645,332.267326 352.302661,338.695840"/>
    <poly id="428414466" type="building" color="255,230,230" fill="1" layer="-1.00" shape="361.233467,302.572947 370.314824,298.986931 366.483508,286.383009 356.846856,288.942671 361.233467,302.572947"/>
    <poly id="428414467" type="building" color="255,230,230" fill="1" layer="-1.00" shape="391.299738,361.545873 394.735213,360.459517 392.603280,353.832150 389.167806,354.918507 391.299738,361.545873"/>
    <poly id="428414468" type="building" color="255,230,230" fill="1" layer="-1.00" shape="383.882298,367.713276 389.068520,366.067022 388.209044,363.393983 383.022823,365.040236 383.882298,367.713276"/>
    <poly id="428414469" type="building" color="255,230,230" fill="1" layer="-1.00" shape="294.854751,319.844805 300.635559,318.008200 296.126124,303.980259 290.334293,305.816908 294.854751,319.844805"/>
    <poly id="428414470" type="building" color="255,230,230" fill="1" layer="-1.00" shape="379.719994,282.481967 388.749062,279.615030 385.735433,270.270474 376.717391,273.137367 379.719994,282.481967"/>
    <poly id="428414471" type="building" color="255,230,230" fill="1" layer="-1.00" shape="365.536338,317.331637 375.126975,314.285532 371.990459,304.532254 362.388800,307.578402 365.536338,317.331637"/>
    <poly id="428414472" type="building" color="255,230,230" fill="1" layer="-1.00" shape="332.076079,345.311967 335.434467,344.248038 332.844940,336.206844 329.486552,337.270772 332.076079,345.311967"/>
    <poly id="428414473" type="building" color="255,230,230" fill="1" layer="-1.00" shape="346.012737,314.909267 362.804620,309.578556 360.371400,302.034429 343.590588,307.376155 346.012737,314.909267"/>
    <poly id="428414474" type="building" color="255,230,230" fill="1" layer="-1.00" shape="395.662934,363.663149 402.203535,361.591277 400.462315,356.189989 393.932783,358.272876 395.662934,363.663149"/>
    <poly id="428414475" type="building" color="255,230,230" fill="1" layer="-1.00" shape="301.208756,317.983817 310.480072,315.038524 308.526731,308.963434 299.244392,311.908770 301.208756,317.983817"/>
    <poly id="428414476" type="building" color="255,230,230" fill="1" layer="-1.00" shape="388.384308,354.733588 403.667654,349.873328 402.350572,345.786461 387.067228,350.646721 388.384308,354.733588"/>
    <poly id="428414477" type="building" color="255,230,230" fill="1" layer="-1.00" shape="308.648611,303.532668 314.880862,301.550502 313.184320,296.292812 306.963095,298.274934 308.648611,303.532668"/>
    <poly id="428414478" type="building" color="255,230,230" fill="1" layer="-1.00" shape="394.017923,357.498365 400.822766,355.336972 399.695377,351.824458 392.890534,353.985851 394.017923,357.498365"/>
    <poly id="428414479" type="building" color="255,230,230" fill="1" layer="-1.00" shape="283.292129,306.508289 295.492388,302.633485 294.030206,298.093746 281.829948,301.968550 283.292129,306.508289"/>
    <poly id="428414480" type="building" color="255,230,230" fill="1" layer="-1.00" shape="319.863729,287.496139 340.146064,281.045687 334.593150,262.421058 313.914460,269.005790 319.863729,287.496139"/>
    <poly id="428414481" type="building" color="255,230,230" fill="1" layer="-1.00" shape="389.745934,395.217573 397.750993,392.675413 394.357757,382.126855 386.352699,384.669014 389.745934,395.217573"/>
    <poly id="428414482" type="building" color="255,230,230" fill="1" layer="-1.00" shape="371.440445,282.514672 377.782808,280.498883 375.394252,273.098355 369.062915,275.114101 371.440445,282.514672"/>
    <poly id="428414483" type="building" color="255,230,230" fill="1" layer="-1.00" shape="343.905109,292.101545 355.653874,288.361221 352.350027,278.110920 340.601221,281.840184 343.905109,292.101545"/>
    <poly id="428414484" type="building" color="255,230,230" fill="1" layer="-1.00" shape="363.117178,335.678083 369.822927,333.550265 368.639849,329.894195 361.945125,332.021970 363.117178,335.678083"/>
    <poly id="428414485" type="building" color="255,230,230" fill="1" layer="-1.00" shape="314.294634,337.363940 323.863227,334.317934 319.911919,322.035214 310.343328,325.081219 314.294634,337.363940"/>
    <poly id="428414486" type="building" color="255,230,230" fill="1" layer="-1.00" shape="276.467754,284.172638 286.465775,280.992227 282.469856,268.576967 272.471837,271.757378 276.467754,284.172638"/>