<?xml version="1.0" encoding="UTF-8"?>

<!-- generated on Fri Mar 15 11:08:49 2019 by Eclipse SUMO netconvert Version 1.1.0
<configuration xmlns:xsi="http://www.w3.org/2001/XMLSchema-instance" xsi:noNamespaceSchemaLocation="http://sumo.dlr.de/xsd/netconvertConfiguration.xsd">

    <input>
        <osm-files value="map.osm"/>
    </input>

    <output>
        <output-file value="map.net.xml"/>
    </output>

    <projection>
        <proj.utm value="true"/>
    </projection>

</configuration>
-->

<net version="1.1" junctionCornerDetail="5" limitTurnSpeed="5.50" xmlns:xsi="http://www.w3.org/2001/XMLSchema-instance" xsi:noNamespaceSchemaLocation="http://sumo.dlr.de/xsd/net_file.xsd">

    <location netOffset="-679201.62,883015.75" convBoundary="0.00,0.00,889.26,968.48" origBoundary="112.625878,-7.985187,112.633954,-7.976436" projParameter="+proj=utm +zone=49 +ellps=WGS84 +datum=WGS84 +units=m +no_defs"/>

    <type id="highway.bridleway" priority="1" numLanes="1" speed="2.78" allow="pedestrian" oneway="1" width="2.00"/>
    <type id="highway.bus_guideway" priority="1" numLanes="1" speed="27.78" allow="bus" oneway="1"/>
    <type id="highway.cycleway" priority="1" numLanes="1" speed="8.33" allow="bicycle" oneway="0" width="1.00"/>
    <type id="highway.footway" priority="1" numLanes="1" speed="2.78" allow="pedestrian" oneway="1" width="2.00"/>
    <type id="highway.ford" priority="1" numLanes="1" speed="2.78" allow="army" oneway="0"/>
    <type id="highway.living_street" priority="3" numLanes="1" speed="2.78" disallow="tram rail_urban rail rail_electric ship" oneway="0"/>
    <type id="highway.motorway" priority="13" numLanes="2" speed="44.44" allow="private emergency authority army vip passenger hov taxi bus coach delivery truck trailer motorcycle evehicle custom1 custom2" oneway="1"/>
    <type id="highway.motorway_link" priority="12" numLanes="1" speed="22.22" allow="private emergency authority army vip passenger hov taxi bus coach delivery truck trailer motorcycle evehicle custom1 custom2" oneway="1"/>
    <type id="highway.path" priority="1" numLanes="1" speed="2.78" allow="bicycle pedestrian" oneway="1" width="2.00"/>
    <type id="highway.pedestrian" priority="1" numLanes="1" speed="2.78" allow="pedestrian" oneway="1" width="2.00"/>
    <type id="highway.primary" priority="9" numLanes="2" speed="27.78" disallow="tram rail_urban rail rail_electric ship" oneway="0"/>
    <type id="highway.primary_link" priority="8" numLanes="1" speed="22.22" disallow="tram rail_urban rail rail_electric ship" oneway="0"/>
    <type id="highway.raceway" priority="14" numLanes="2" speed="83.33" allow="vip" oneway="0"/>
    <type id="highway.residential" priority="4" numLanes="1" speed="13.89" disallow="tram rail_urban rail rail_electric ship" oneway="0"/>
    <type id="highway.secondary" priority="7" numLanes="2" speed="27.78" disallow="tram rail_urban rail rail_electric ship" oneway="0"/>
    <type id="highway.secondary_link" priority="6" numLanes="1" speed="22.22" disallow="tram rail_urban rail rail_electric ship" oneway="0"/>
    <type id="highway.service" priority="2" numLanes="1" speed="5.56" allow="delivery bicycle pedestrian" oneway="0"/>
    <type id="highway.stairs" priority="1" numLanes="1" speed="1.39" allow="pedestrian" oneway="1" width="2.00"/>
    <type id="highway.step" priority="1" numLanes="1" speed="1.39" allow="pedestrian" oneway="1" width="2.00"/>
    <type id="highway.steps" priority="1" numLanes="1" speed="1.39" allow="pedestrian" oneway="1" width="2.00"/>
    <type id="highway.tertiary" priority="6" numLanes="1" speed="22.22" disallow="tram rail_urban rail rail_electric ship" oneway="0"/>
    <type id="highway.tertiary_link" priority="5" numLanes="1" speed="22.22" disallow="tram rail_urban rail rail_electric ship" oneway="0"/>
    <type id="highway.track" priority="1" numLanes="1" speed="5.56" disallow="tram rail_urban rail rail_electric ship" oneway="0"/>
    <type id="highway.trunk" priority="11" numLanes="2" speed="27.78" disallow="tram rail_urban rail rail_electric bicycle pedestrian ship" oneway="0"/>
    <type id="highway.trunk_link" priority="10" numLanes="1" speed="22.22" disallow="tram rail_urban rail rail_electric bicycle pedestrian ship" oneway="0"/>
    <type id="highway.unclassified" priority="5" numLanes="1" speed="13.89" disallow="tram rail_urban rail rail_electric ship" oneway="0"/>
    <type id="highway.unsurfaced" priority="1" numLanes="1" speed="8.33" disallow="tram rail_urban rail rail_electric ship" oneway="0"/>
    <type id="railway.light_rail" priority="15" numLanes="1" speed="27.78" allow="rail_urban" oneway="1"/>
    <type id="railway.preserved" priority="15" numLanes="1" speed="27.78" allow="rail" oneway="1"/>
    <type id="railway.rail" priority="15" numLanes="1" speed="83.33" allow="rail rail_electric" oneway="1"/>
    <type id="railway.subway" priority="15" numLanes="1" speed="27.78" allow="rail_urban" oneway="1"/>
    <type id="railway.tram" priority="15" numLanes="1" speed="13.89" allow="tram" oneway="1"/>

    <edge id=":1617002956_0" function="internal">
        <lane id=":1617002956_0_0" index="0" disallow="tram rail_urban rail rail_electric ship" speed="27.78" length="9.40" shape="372.38,236.54 363.29,238.90"/>
        <lane id=":1617002956_0_1" index="1" disallow="tram rail_urban rail rail_electric ship" speed="27.78" length="9.40" shape="371.58,233.45 362.48,235.80"/>
    </edge>
    <edge id=":1617002956_2" function="internal">
        <lane id=":1617002956_2_0" index="0" disallow="tram rail_urban rail rail_electric ship" speed="6.21" length="7.83" shape="371.58,233.45 368.89,233.94 366.83,233.85 365.40,233.20 364.62,231.97"/>
    </edge>
    <edge id=":1617002956_3" function="internal">
        <lane id=":1617002956_3_0" index="0" disallow="tram rail_urban rail rail_electric ship" speed="6.04" length="7.88" shape="367.67,231.03 367.72,232.51 366.87,233.81 365.12,234.90 362.48,235.80"/>
    </edge>
    <edge id=":1617002956_4" function="internal">
        <lane id=":1617002956_4_0" index="0" disallow="tram rail_urban rail rail_electric ship" speed="3.65" length="4.67" shape="367.67,231.03 367.26,232.41 366.62,233.03 365.74,232.88 364.62,231.97"/>
    </edge>
    <edge id=":1617002968_0" function="internal">
        <lane id=":1617002968_0_0" index="0" disallow="tram rail_urban rail rail_electric ship" speed="3.65" length="4.67" shape="316.96,54.98 317.60,53.69 318.35,53.19 319.19,53.49 320.14,54.58"/>
    </edge>
    <edge id=":1617019819_0" function="internal">
        <lane id=":1617019819_0_0" index="0" disallow="tram rail_urban rail rail_electric ship" speed="27.78" length="14.46" shape="80.35,233.66 74.67,220.36"/>
        <lane id=":1617019819_0_1" index="1" disallow="tram rail_urban rail rail_electric ship" speed="27.78" length="14.46" shape="83.29,232.40 77.61,219.11"/>
    </edge>
    <edge id=":1617019819_2" function="internal">
        <lane id=":1617019819_2_0" index="0" disallow="tram rail_urban rail rail_electric ship" speed="8.47" length="5.54" shape="83.29,232.40 82.36,228.22 82.73,227.02"/>
    </edge>
    <edge id=":1617019819_3" function="internal">
        <lane id=":1617019819_3_0" index="0" disallow="tram rail_urban rail rail_electric ship" speed="3.65" length="2.34" shape="83.29,232.40 83.55,230.98 84.13,230.30"/>
    </edge>
    <edge id=":1617019819_11" function="internal">
        <lane id=":1617019819_11_0" index="0" disallow="tram rail_urban rail rail_electric ship" speed="8.47" length="12.04" shape="82.73,227.02 83.43,224.74 86.51,221.95 91.60,219.86"/>
    </edge>
    <edge id=":1617019819_12" function="internal">
        <lane id=":1617019819_12_0" index="0" disallow="tram rail_urban rail rail_electric ship" speed="3.65" length="2.34" shape="84.13,230.30 85.02,230.35 86.23,231.14"/>
    </edge>
    <edge id=":1617019819_4" function="internal">
        <lane id=":1617019819_4_0" index="0" disallow="tram rail_urban rail rail_electric ship" speed="6.25" length="9.05" shape="92.48,222.94 90.18,223.97 88.86,225.48 88.52,227.45 89.17,229.88"/>
    </edge>
    <edge id=":1617019819_5" function="internal">
        <lane id=":1617019819_5_0" index="0" disallow="tram rail_urban rail rail_electric ship" speed="9.10" length="16.89" shape="92.48,222.94 87.13,223.96 82.86,223.67 79.69,222.05 77.61,219.11"/>
    </edge>
    <edge id=":1617019819_6" function="internal">
        <lane id=":1617019819_6_0" index="0" disallow="tram rail_urban rail rail_electric ship" speed="3.65" length="4.67" shape="92.48,222.94 91.10,222.50 90.50,221.84 90.66,220.96 91.60,219.86"/>
    </edge>
    <edge id=":1617019819_7" function="internal">
        <lane id=":1617019819_7_0" index="0" disallow="tram rail_urban rail rail_electric ship" speed="7.03" length="9.70" shape="83.50,216.60 84.80,218.67 86.58,219.90 88.85,220.30 91.60,219.86"/>
    </edge>
    <edge id=":1617019819_8" function="internal">
        <lane id=":1617019819_8_0" index="0" disallow="tram rail_urban rail rail_electric ship" speed="27.78" length="14.45" shape="83.50,216.60 89.17,229.88"/>
        <lane id=":1617019819_8_1" index="1" disallow="tram rail_urban rail rail_electric ship" speed="27.78" length="14.45" shape="80.55,217.85 86.23,231.14"/>
    </edge>
    <edge id=":1617019819_10" function="internal">
        <lane id=":1617019819_10_0" index="0" disallow="tram rail_urban rail rail_electric ship" speed="3.65" length="2.34" shape="80.55,217.85 80.29,219.27 79.71,219.95"/>
    </edge>
    <edge id=":1617019819_13" function="internal">
        <lane id=":1617019819_13_0" index="0" disallow="tram rail_urban rail rail_electric ship" speed="3.65" length="2.34" shape="79.71,219.95 78.82,219.90 77.61,219.11"/>
    </edge>
    <edge id=":1620268649_0" function="internal">
        <lane id=":1620268649_0_0" index="0" disallow="tram rail_urban rail rail_electric ship" speed="3.65" length="4.67" shape="30.56,125.51 30.18,124.12 30.40,123.26 31.22,122.91 32.66,123.10"/>
    </edge>
    <edge id=":1621202539_0" function="internal">
        <lane id=":1621202539_0_0" index="0" disallow="tram rail_urban rail rail_electric ship" speed="3.65" length="4.67" shape="355.08,518.49 354.26,519.68 353.46,520.07 352.66,519.66 351.88,518.45"/>
    </edge>
    <edge id=":1621247434_0" function="internal">
        <lane id=":1621247434_0_0" index="0" disallow="tram rail_urban rail rail_electric ship" speed="6.35" length="9.04" shape="599.21,182.79 598.38,180.42 597.01,178.95 595.07,178.38 592.59,178.69"/>
    </edge>
    <edge id=":1621247434_1" function="internal">
        <lane id=":1621247434_1_0" index="0" disallow="tram rail_urban rail rail_electric ship" speed="7.18" length="11.87" shape="599.21,182.79 598.10,179.05 596.48,176.61 594.36,175.46 591.74,175.61"/>
    </edge>
    <edge id=":1621247434_2" function="internal">
        <lane id=":1621247434_2_0" index="0" disallow="tram rail_urban rail rail_electric ship" speed="7.96" length="14.83" shape="599.21,182.79 597.82,177.68 595.96,174.26 593.65,172.54 590.89,172.52"/>
    </edge>
    <edge id=":1621247434_3" function="internal">
        <lane id=":1621247434_3_0" index="0" disallow="tram rail_urban rail rail_electric ship" speed="27.78" length="17.76" shape="599.21,182.79 595.42,165.51"/>
        <lane id=":1621247434_3_1" index="1" disallow="tram rail_urban rail rail_electric ship" speed="27.78" length="17.76" shape="602.35,182.17 598.53,164.75"/>
    </edge>
    <edge id=":1621247434_5" function="internal">
        <lane id=":1621247434_5_0" index="0" disallow="tram rail_urban rail rail_electric ship" speed="7.77" length="12.40" shape="602.35,182.17 601.92,178.12 602.38,175.00 603.75,172.81 606.02,171.55"/>
    </edge>
    <edge id=":1641713411_0" function="internal">
        <lane id=":1641713411_0_0" index="0" allow="bicycle pedestrian" speed="4.93" length="4.56" width="2.00" shape="355.72,203.19 355.21,202.23 354.42,201.65 353.34,201.46 351.96,201.65"/>
    </edge>
    <edge id=":1641713411_1" function="internal">
        <lane id=":1641713411_1_0" index="0" disallow="tram rail_urban rail rail_electric ship" speed="13.89" length="4.98" shape="355.72,203.19 354.29,198.43"/>
    </edge>
    <edge id=":1641713411_2" function="internal">
        <lane id=":1641713411_2_0" index="0" disallow="tram rail_urban rail rail_electric ship" speed="3.65" length="2.34" shape="355.72,203.19 356.13,201.81 356.77,201.19"/>
    </edge>
    <edge id=":1641713411_6" function="internal">
        <lane id=":1641713411_6_0" index="0" disallow="tram rail_urban rail rail_electric ship" speed="3.65" length="2.34" shape="356.77,201.19 357.66,201.34 358.77,202.25"/>
    </edge>
    <edge id=":1641713411_3" function="internal">
        <lane id=":1641713411_3_0" index="0" disallow="tram rail_urban rail rail_electric ship" speed="13.89" length="4.93" shape="357.36,197.53 358.77,202.25"/>
    </edge>
    <edge id=":1641713411_4" function="internal">
        <lane id=":1641713411_4_0" index="0" allow="bicycle pedestrian" speed="5.91" length="2.65" width="2.00" shape="357.36,197.53 357.30,198.75 356.38,199.84"/>
    </edge>
    <edge id=":1641713411_5" function="internal">
        <lane id=":1641713411_5_0" index="0" disallow="tram rail_urban rail rail_electric ship" speed="3.65" length="2.34" shape="357.36,197.53 356.93,198.90 356.27,199.51"/>
    </edge>
    <edge id=":1641713411_7" function="internal">
        <lane id=":1641713411_7_0" index="0" allow="bicycle pedestrian" speed="5.91" length="4.80" width="2.00" shape="356.38,199.84 354.60,200.81 351.96,201.65"/>
    </edge>
    <edge id=":1641713411_8" function="internal">
        <lane id=":1641713411_8_0" index="0" disallow="tram rail_urban rail rail_electric ship" speed="3.65" length="2.34" shape="356.27,199.51 355.39,199.35 354.29,198.43"/>
    </edge>
    <edge id=":1641713416_0" function="internal">
        <lane id=":1641713416_0_0" index="0" disallow="tram rail_urban rail rail_electric ship" speed="3.65" length="4.67" shape="233.00,190.88 232.50,192.24 231.81,192.81 230.94,192.61 229.89,191.63"/>
    </edge>
    <edge id=":1641713828_0" function="internal">
        <lane id=":1641713828_0_0" index="0" disallow="tram rail_urban rail rail_electric ship" speed="3.65" length="4.67" shape="206.26,86.44 206.73,85.08 207.41,84.49 208.28,84.68 209.36,85.64"/>
    </edge>
    <edge id=":1647179375_0" function="internal">
        <lane id=":1647179375_0_0" index="0" disallow="tram rail_urban rail rail_electric ship" speed="4.89" length="4.43" shape="504.46,470.84 503.42,471.12 502.69,471.75 502.27,472.72 502.15,474.05"/>
    </edge>
    <edge id=":1647179375_1" function="internal">
        <lane id=":1647179375_1_0" index="0" allow="delivery bicycle pedestrian" speed="3.65" length="4.67" shape="504.46,470.84 503.19,470.15 502.73,469.39 503.06,468.56 504.18,467.66"/>
    </edge>
    <edge id=":1647179375_2" function="internal">
        <lane id=":1647179375_2_0" index="0" allow="delivery bicycle pedestrian" speed="4.95" length="4.46" shape="501.26,464.94 501.63,466.21 502.25,467.08 503.10,467.56 504.18,467.66"/>
    </edge>
    <edge id=":1647179375_3" function="internal">
        <lane id=":1647179375_3_0" index="0" disallow="tram rail_urban rail rail_electric ship" speed="27.78" length="8.93" shape="501.26,464.94 501.72,467.62 501.96,469.47 502.08,471.33 502.15,474.05"/>
        <lane id=":1647179375_3_1" index="1" disallow="tram rail_urban rail rail_electric ship" speed="27.78" length="8.93" shape="498.11,465.49 498.54,468.03 498.77,469.79 498.88,471.55 498.95,474.13"/>
    </edge>
    <edge id=":1647179404_0" function="internal">
        <lane id=":1647179404_0_0" index="0" allow="delivery bicycle pedestrian" speed="3.65" length="4.67" shape="556.35,457.09 557.69,457.62 558.25,458.32 558.03,459.19 557.02,460.22"/>
    </edge>
    <edge id=":2415625010_0" function="internal">
        <lane id=":2415625010_0_0" index="0" allow="delivery bicycle pedestrian" speed="4.88" length="4.67" shape="507.55,473.72 507.29,472.37 506.72,471.43 505.84,470.92 504.66,470.83"/>
    </edge>
    <edge id=":2415625010_1" function="internal">
        <lane id=":2415625010_1_0" index="0" disallow="tram rail_urban rail rail_electric ship" speed="27.78" length="9.69" shape="507.55,473.72 507.35,470.89 507.17,468.96 506.91,467.04 506.47,464.24"/>
        <lane id=":2415625010_1_1" index="1" disallow="tram rail_urban rail rail_electric ship" speed="27.78" length="9.69" shape="510.74,473.50 510.54,470.59 510.35,468.60 510.08,466.62 509.64,463.74"/>
    </edge>
    <edge id=":2415625010_3" function="internal">
        <lane id=":2415625010_3_0" index="0" allow="delivery bicycle pedestrian" speed="6.57" length="8.24" shape="510.74,473.50 510.73,470.58 511.15,468.40 511.99,466.97 513.26,466.28"/>
    </edge>
    <edge id=":2415625010_4" function="internal">
        <lane id=":2415625010_4_0" index="0" allow="delivery bicycle pedestrian" speed="5.56" length="9.39" shape="513.93,469.41 511.20,469.99 509.32,470.34 507.43,470.57 504.66,470.83"/>
    </edge>
    <edge id=":2415625010_5" function="internal">
        <lane id=":2415625010_5_0" index="0" disallow="tram rail_urban rail rail_electric ship" speed="6.04" length="7.96" shape="513.93,469.41 512.42,469.32 511.21,468.34 510.28,466.49 509.64,463.74"/>
    </edge>
    <edge id=":2415625010_6" function="internal">
        <lane id=":2415625010_6_0" index="0" allow="delivery bicycle pedestrian" speed="3.65" length="4.67" shape="513.93,469.41 512.59,468.88 512.03,468.18 512.25,467.31 513.26,466.28"/>
    </edge>
    <edge id=":2415625010_7" function="internal">
        <lane id=":2415625010_7_0" index="0" disallow="tram rail_urban rail rail_electric ship" speed="4.77" length="4.61" shape="504.38,467.64 505.49,467.34 506.20,466.68 506.53,465.64 506.47,464.24"/>
    </edge>
    <edge id=":2415625010_8" function="internal">
        <lane id=":2415625010_8_0" index="0" allow="delivery bicycle pedestrian" speed="5.56" length="8.99" shape="504.38,467.64 507.04,467.40 508.85,467.17 510.65,466.83 513.26,466.28"/>
    </edge>
    <edge id=":2415625010_9" function="internal">
        <lane id=":2415625010_9_0" index="0" allow="delivery bicycle pedestrian" speed="3.65" length="4.67" shape="504.38,467.64 505.65,468.33 506.11,469.10 505.78,469.93 504.66,470.83"/>
    </edge>
    <edge id=":2437004314_0" function="internal">
        <lane id=":2437004314_0_0" index="0" disallow="tram rail_urban rail rail_electric ship" speed="27.78" length="7.70" shape="174.18,476.24 181.41,479.42"/>
        <lane id=":2437004314_0_1" index="1" disallow="tram rail_urban rail rail_electric ship" speed="27.78" length="7.70" shape="176.01,478.87 182.59,482.47"/>
    </edge>
    <edge id=":2437004314_2" function="internal">
        <lane id=":2437004314_2_0" index="0" disallow="tram rail_urban rail rail_electric ship" speed="3.65" length="4.67" shape="176.01,478.87 177.45,478.84 178.23,479.27 178.36,480.16 177.83,481.50"/>
    </edge>
    <edge id=":2514868052_0" function="internal">
        <lane id=":2514868052_0_0" index="0" disallow="tram rail_urban rail rail_electric ship" speed="3.65" length="4.67" shape="130.46,514.39 129.02,514.42 128.24,513.99 128.11,513.10 128.64,511.76"/>
    </edge>
    <edge id=":2520489311_0" function="internal">
        <lane id=":2520489311_0_0" index="0" disallow="tram rail_urban rail rail_electric ship" speed="27.78" length="14.64" shape="507.50,387.99 521.57,384.07"/>
        <lane id=":2520489311_0_1" index="1" disallow="tram rail_urban rail rail_electric ship" speed="27.78" length="14.64" shape="508.36,391.07 522.47,387.14"/>
        <lane id=":2520489311_0_2" index="2" disallow="tram rail_urban rail rail_electric ship" speed="27.78" length="14.64" shape="509.22,394.15 523.36,390.21"/>
    </edge>
    <edge id=":2520489311_3" function="internal">
        <lane id=":2520489311_3_0" index="0" disallow="tram rail_urban rail rail_electric ship" speed="15.30" length="15.39" shape="512.24,399.00 514.04,395.76 515.65,392.39 518.12,389.35 522.47,387.14"/>
        <lane id=":2520489311_3_1" index="1" disallow="tram rail_urban rail rail_electric ship" speed="14.50" length="15.39" shape="512.24,399.00 514.28,396.21 516.37,393.84 519.18,391.86 523.36,390.21"/>
    </edge>
    <edge id=":2520489313_0" function="internal">
        <lane id=":2520489313_0_0" index="0" disallow="tram rail_urban rail rail_electric ship" speed="13.19" length="14.45" shape="495.68,403.50 494.83,399.64 493.96,396.98 492.39,394.75 489.46,392.22"/>
        <lane id=":2520489313_0_1" index="1" disallow="tram rail_urban rail rail_electric ship" speed="14.22" length="14.45" shape="498.80,402.80 497.80,398.31 496.74,395.22 494.88,392.66 491.45,389.71"/>
    </edge>
    <edge id=":2520489313_2" function="internal">
        <lane id=":2520489313_2_0" index="0" disallow="tram rail_urban rail rail_electric ship" speed="27.78" length="12.55" shape="489.65,394.84 493.13,393.48 495.39,392.23 497.66,391.00 501.18,389.76"/>
        <lane id=":2520489313_2_1" index="1" disallow="tram rail_urban rail rail_electric ship" speed="27.78" length="12.55" shape="490.61,397.89 494.07,396.54 496.30,395.29 498.56,394.08 502.04,392.84"/>
        <lane id=":2520489313_2_2" index="2" disallow="tram rail_urban rail rail_electric ship" speed="27.78" length="12.55" shape="490.61,397.89 494.19,397.03 496.74,396.83 499.29,396.68 502.91,395.92"/>
    </edge>
    <edge id=":2520489314_0" function="internal">
        <lane id=":2520489314_0_0" index="0" disallow="tram rail_urban rail rail_electric ship" speed="27.78" length="9.44" shape="500.29,424.91 497.83,413.03"/>
        <lane id=":2520489314_0_1" index="1" disallow="tram rail_urban rail rail_electric ship" speed="27.78" length="9.44" shape="503.45,424.41 502.11,417.79"/>
    </edge>
    <edge id=":2520489314_2" function="internal">
        <lane id=":2520489314_2_0" index="0" disallow="tram rail_urban rail rail_electric ship" speed="15.20" length="14.13" shape="503.45,424.41 503.05,420.03 503.37,416.72 504.30,413.84 505.72,410.77"/>
    </edge>
    <edge id=":2520489318_0" function="internal">
        <lane id=":2520489318_0_0" index="0" disallow="tram rail_urban rail rail_electric ship" speed="9.37" length="8.28" shape="622.03,356.12 623.63,355.43 624.44,354.47 625.04,353.20 626.01,351.58"/>
        <lane id=":2520489318_0_1" index="1" disallow="tram rail_urban rail rail_electric ship" speed="10.85" length="8.28" shape="622.84,359.22 625.08,358.33 626.32,357.15 627.27,355.55 628.65,353.39"/>
        <lane id=":2520489318_0_2" index="2" disallow="tram rail_urban rail rail_electric ship" speed="11.70" length="8.28" shape="623.65,362.31 626.33,361.33 627.90,360.08 629.13,358.32 630.81,355.85"/>
    </edge>
    <edge id=":2520489318_3" function="internal">
        <lane id=":2520489318_3_0" index="0" disallow="tram rail_urban rail rail_electric ship" speed="9.61" length="8.85" shape="623.65,362.31 626.25,361.81 628.55,361.72 630.55,362.06 632.25,362.82"/>
    </edge>
    <edge id=":2520489319_0" function="internal">
        <lane id=":2520489319_0_0" index="0" disallow="tram rail_urban rail rail_electric ship" speed="25.00" length="26.42" shape="638.12,355.34 637.64,350.52 637.14,344.02 636.30,336.63 634.79,329.16"/>
    </edge>
    <edge id=":2520489319_1" function="internal">
        <lane id=":2520489319_1_0" index="0" disallow="tram rail_urban rail rail_electric ship" speed="14.20" length="24.29" shape="626.13,351.42 629.59,345.88 631.68,340.46 632.38,335.16 631.70,329.99"/>
        <lane id=":2520489319_1_1" index="1" disallow="tram rail_urban rail rail_electric ship" speed="15.02" length="24.29" shape="628.77,353.23 632.58,347.09 634.86,341.04 635.59,335.06 634.79,329.16"/>
    </edge>
    <edge id=":2520489320_0" function="internal">
        <lane id=":2520489320_0_0" index="0" disallow="tram rail_urban rail rail_electric ship" speed="22.22" length="11.35" shape="639.29,372.93 638.93,369.79 639.09,367.29 639.30,364.78 639.09,361.62"/>
    </edge>
    <edge id=":2520489320_1" function="internal">
        <lane id=":2520489320_1_0" index="0" disallow="tram rail_urban rail rail_electric ship" speed="3.65" length="1.97" shape="639.29,372.93 639.83,371.59 640.24,371.26"/>
    </edge>
    <edge id=":2520489320_3" function="internal">
        <lane id=":2520489320_3_0" index="0" disallow="tram rail_urban rail rail_electric ship" speed="3.65" length="2.70" shape="640.24,371.26 640.53,371.03 641.39,371.26 642.42,372.27"/>
    </edge>
    <edge id=":2520489320_2" function="internal">
        <lane id=":2520489320_2_0" index="0" disallow="tram rail_urban rail rail_electric ship" speed="11.22" length="11.95" shape="634.13,364.00 637.48,366.29 639.98,368.43 641.63,370.42 642.42,372.27"/>
    </edge>
    <edge id=":2520517362_0" function="internal">
        <lane id=":2520517362_0_0" index="0" disallow="tram rail_urban rail rail_electric ship" speed="27.78" length="0.24" shape="178.04,447.23 178.16,447.50"/>
        <lane id=":2520517362_0_1" index="1" disallow="tram rail_urban rail rail_electric ship" speed="27.78" length="0.24" shape="175.15,448.60 175.22,448.76"/>
    </edge>
    <edge id=":2520517364_0" function="internal">
        <lane id=":2520517364_0_0" index="0" disallow="tram rail_urban rail rail_electric ship" speed="27.78" length="0.50" shape="195.52,471.11 195.75,471.01 195.90,470.95 196.07,470.90 196.30,470.84"/>
        <lane id=":2520517364_0_1" index="1" disallow="tram rail_urban rail rail_electric ship" speed="27.78" length="0.50" shape="196.91,473.99 196.96,473.97 197.00,473.96 197.03,473.96 197.08,473.95"/>
    </edge>
    <edge id=":2520517369_0" function="internal">
        <lane id=":2520517369_0_0" index="0" disallow="tram rail_urban rail rail_electric ship" speed="12.24" length="12.86" shape="136.49,296.19 132.90,297.28 130.59,298.56 128.77,300.53 126.67,303.68"/>
    </edge>
    <edge id=":2520517369_1" function="internal">
        <lane id=":2520517369_1_0" index="0" disallow="tram rail_urban rail rail_electric ship" speed="12.49" length="13.42" shape="136.49,296.19 132.51,296.85 129.52,297.15 127.05,298.16 124.61,300.95"/>
    </edge>
    <edge id=":2520517369_2" function="internal">
        <lane id=":2520517369_2_0" index="0" disallow="tram rail_urban rail rail_electric ship" speed="16.64" length="13.44" shape="136.49,296.19 132.52,297.23 129.69,297.72 126.87,297.53 122.93,296.53"/>
        <lane id=":2520517369_2_1" index="1" disallow="tram rail_urban rail rail_electric ship" speed="16.12" length="13.44" shape="135.69,293.09 131.96,294.04 129.30,294.42 126.66,294.17 122.96,293.20"/>
    </edge>
    <edge id=":2520517371_0" function="internal">
        <lane id=":2520517371_0_0" index="0" allow="bicycle pedestrian" speed="15.28" length="20.00" width="2.00" shape="120.01,295.67 113.63,294.05 108.40,293.37 104.08,293.62 100.44,294.78"/>
    </edge>
    <edge id=":2520517371_1" function="internal">
        <lane id=":2520517371_1_0" index="0" disallow="tram rail_urban rail rail_electric ship" speed="12.95" length="18.32" shape="121.18,292.67 118.07,291.93 112.14,290.50 106.31,288.95 103.52,287.85"/>
    </edge>
    <edge id=":2520517371_2" function="internal">
        <lane id=":2520517371_2_0" index="0" disallow="tram rail_urban rail rail_electric ship" speed="12.15" length="16.05" shape="121.18,292.67 115.06,290.75 110.56,289.10 107.70,287.71 106.46,286.59"/>
    </edge>
    <edge id=":2520517371_3" function="internal">
        <lane id=":2520517371_3_0" index="0" disallow="tram rail_urban rail rail_electric ship" speed="27.78" length="16.66" shape="112.35,284.08 113.79,288.75 114.04,292.18 114.26,295.62 115.64,300.32"/>
        <lane id=":2520517371_3_1" index="1" disallow="tram rail_urban rail rail_electric ship" speed="27.78" length="16.66" shape="109.41,285.34 110.85,290.00 111.08,293.42 111.30,296.85 112.68,301.54"/>
    </edge>
    <edge id=":2520517371_5" function="internal">
        <lane id=":2520517371_5_0" index="0" allow="bicycle pedestrian" speed="8.09" length="1.47" width="2.00" shape="109.41,285.34 109.49,286.80"/>
    </edge>
    <edge id=":2520517371_6" function="internal">
        <lane id=":2520517371_6_0" index="0" disallow="tram rail_urban rail rail_electric ship" speed="3.65" length="1.33" shape="109.41,285.34 109.16,286.64"/>
    </edge>
    <edge id=":2520517371_7" function="internal">
        <lane id=":2520517371_7_0" index="0" allow="bicycle pedestrian" speed="8.09" length="12.59" width="2.00" shape="109.49,286.80 109.54,287.54 108.08,289.85 105.05,292.26 100.44,294.78"/>
    </edge>
    <edge id=":2520517371_8" function="internal">
        <lane id=":2520517371_8_0" index="0" disallow="tram rail_urban rail rail_electric ship" speed="3.65" length="3.34" shape="109.16,286.64 109.14,286.75 108.56,287.44 107.67,287.38 106.46,286.59"/>
    </edge>
    <edge id=":2520517373_0" function="internal">
        <lane id=":2520517373_0_0" index="0" disallow="tram rail_urban rail rail_electric ship" speed="9.45" length="10.45" shape="124.90,306.44 123.19,309.45 122.15,312.08 121.79,314.33 122.10,316.19"/>
    </edge>
    <edge id=":2520517373_1" function="internal">
        <lane id=":2520517373_1_0" index="0" disallow="tram rail_urban rail rail_electric ship" speed="10.50" length="13.00" shape="121.96,305.10 120.01,308.64 118.89,311.86 118.59,314.76 119.12,317.34"/>
    </edge>
    <edge id=":2520517373_2" function="internal">
        <lane id=":2520517373_2_0" index="0" disallow="tram rail_urban rail rail_electric ship" speed="27.78" length="12.10" shape="117.55,304.95 122.10,316.19"/>
        <lane id=":2520517373_2_1" index="1" disallow="tram rail_urban rail rail_electric ship" speed="27.78" length="12.10" shape="114.59,306.16 119.12,317.34"/>
    </edge>
    <edge id=":2520517375_0" function="internal">
        <lane id=":2520517375_0_0" index="0" disallow="tram rail_urban rail rail_electric ship" speed="6.95" length="10.29" shape="442.52,225.87 441.35,222.94 439.75,221.04 437.73,220.18 435.28,220.35"/>