<?xml version="1.0" encoding="UTF-8"?>

<!-- generated on Mon Mar 18 23:22:25 2019 by Eclipse SUMO netconvert Version 1.1.0
<configuration xmlns:xsi="http://www.w3.org/2001/XMLSchema-instance" xsi:noNamespaceSchemaLocation="http://sumo.dlr.de/xsd/netconvertConfiguration.xsd">

    <input>
        <osm-files value="Alun2batu.osm"/>
    </input>

    <output>
        <output-file value="AB.net.xml"/>
    </output>

    <projection>
        <proj.utm value="true"/>
    </projection>

</configuration>
-->

<net version="1.1" junctionCornerDetail="5" limitTurnSpeed="5.50" xmlns:xsi="http://www.w3.org/2001/XMLSchema-instance" xsi:noNamespaceSchemaLocation="http://sumo.dlr.de/xsd/net_file.xsd">

    <location netOffset="-667422.10,870621.31" convBoundary="0.00,0.00,1218.15,761.88" origBoundary="112.518613,-7.873522,112.529657,-7.866617" projParameter="+proj=utm +zone=49 +ellps=WGS84 +datum=WGS84 +units=m +no_defs"/>

    <type id="highway.bridleway" priority="1" numLanes="1" speed="2.78" allow="pedestrian" oneway="1" width="2.00"/>
    <type id="highway.bus_guideway" priority="1" numLanes="1" speed="27.78" allow="bus" oneway="1"/>
    <type id="highway.cycleway" priority="1" numLanes="1" speed="8.33" allow="bicycle" oneway="0" width="1.00"/>
    <type id="highway.footway" priority="1" numLanes="1" speed="2.78" allow="pedestrian" oneway="1" width="2.00"/>
    <type id="highway.ford" priority="1" numLanes="1" speed="2.78" allow="army" oneway="0"/>
    <type id="highway.living_street" priority="3" numLanes="1" speed="2.78" disallow="tram rail_urban rail rail_electric ship" oneway="0"/>
    <type id="highway.motorway" priority="13" numLanes="2" speed="44.44" allow="private emergency authority army vip passenger hov taxi bus coach delivery truck trailer motorcycle evehicle custom1 custom2" oneway="1"/>
    <type id="highway.motorway_link" priority="12" numLanes="1" speed="22.22" allow="private emergency authority army vip passenger hov taxi bus coach delivery truck trailer motorcycle evehicle custom1 custom2" oneway="1"/>
    <type id="highway.path" priority="1" numLanes="1" speed="2.78" allow="bicycle pedestrian" oneway="1" width="2.00"/>
    <type id="highway.pedestrian" priority="1" numLanes="1" speed="2.78" allow="pedestrian" oneway="1" width="2.00"/>
    <type id="highway.primary" priority="9" numLanes="2" speed="27.78" disallow="tram rail_urban rail rail_electric ship" oneway="0"/>
    <type id="highway.primary_link" priority="8" numLanes="1" speed="22.22" disallow="tram rail_urban rail rail_electric ship" oneway="0"/>
    <type id="highway.raceway" priority="14" numLanes="2" speed="83.33" allow="vip" oneway="0"/>
    <type id="highway.residential" priority="4" numLanes="1" speed="13.89" disallow="tram rail_urban rail rail_electric ship" oneway="0"/>
    <type id="highway.secondary" priority="7" numLanes="2" speed="27.78" disallow="tram rail_urban rail rail_electric ship" oneway="0"/>
    <type id="highway.secondary_link" priority="6" numLanes="1" speed="22.22" disallow="tram rail_urban rail rail_electric ship" oneway="0"/>
    <type id="highway.service" priority="2" numLanes="1" speed="5.56" allow="delivery bicycle pedestrian" oneway="0"/>
    <type id="highway.stairs" priority="1" numLanes="1" speed="1.39" allow="pedestrian" oneway="1" width="2.00"/>
    <type id="highway.step" priority="1" numLanes="1" speed="1.39" allow="pedestrian" oneway="1" width="2.00"/>
    <type id="highway.steps" priority="1" numLanes="1" speed="1.39" allow="pedestrian" oneway="1" width="2.00"/>
    <type id="highway.tertiary" priority="6" numLanes="1" speed="22.22" disallow="tram rail_urban rail rail_electric ship" oneway="0"/>
    <type id="highway.tertiary_link" priority="5" numLanes="1" speed="22.22" disallow="tram rail_urban rail rail_electric ship" oneway="0"/>
    <type id="highway.track" priority="1" numLanes="1" speed="5.56" disallow="tram rail_urban rail rail_electric ship" oneway="0"/>
    <type id="highway.trunk" priority="11" numLanes="2" speed="27.78" disallow="tram rail_urban rail rail_electric bicycle pedestrian ship" oneway="0"/>
    <type id="highway.trunk_link" priority="10" numLanes="1" speed="22.22" disallow="tram rail_urban rail rail_electric bicycle pedestrian ship" oneway="0"/>
    <type id="highway.unclassified" priority="5" numLanes="1" speed="13.89" disallow="tram rail_urban rail rail_electric ship" oneway="0"/>
    <type id="highway.unsurfaced" priority="1" numLanes="1" speed="8.33" disallow="tram rail_urban rail rail_electric ship" oneway="0"/>
    <type id="railway.light_rail" priority="15" numLanes="1" speed="27.78" allow="rail_urban" oneway="1"/>
    <type id="railway.preserved" priority="15" numLanes="1" speed="27.78" allow="rail" oneway="1"/>
    <type id="railway.rail" priority="15" numLanes="1" speed="83.33" allow="rail rail_electric" oneway="1"/>
    <type id="railway.subway" priority="15" numLanes="1" speed="27.78" allow="rail_urban" oneway="1"/>
    <type id="railway.tram" priority="15" numLanes="1" speed="13.89" allow="tram" oneway="1"/>

    <edge id=":1533458290_0" function="internal">
        <lane id=":1533458290_0_0" index="0" disallow="tram rail_urban rail rail_electric ship" speed="27.78" length="0.39" shape="587.40,362.08 587.23,361.65"/>
        <lane id=":1533458290_0_1" index="1" disallow="tram rail_urban rail rail_electric ship" speed="27.78" length="0.39" shape="590.36,360.88 590.25,360.58"/>
    </edge>
    <edge id=":1533458290_2" function="internal">
        <lane id=":1533458290_2_0" index="0" disallow="tram rail_urban rail rail_electric ship" speed="3.65" length="2.34" shape="590.36,360.88 590.65,359.47 591.24,358.80"/>
    </edge>
    <edge id=":1533458290_6" function="internal">
        <lane id=":1533458290_6_0" index="0" disallow="tram rail_urban rail rail_electric ship" speed="3.65" length="2.34" shape="591.24,358.80 592.14,358.87 593.33,359.68"/>
    </edge>
    <edge id=":1533458290_3" function="internal">
        <lane id=":1533458290_3_0" index="0" disallow="tram rail_urban rail rail_electric ship" speed="27.78" length="0.14" shape="596.28,358.43 596.29,358.48"/>
        <lane id=":1533458290_3_1" index="1" disallow="tram rail_urban rail rail_electric ship" speed="27.78" length="0.14" shape="593.26,359.51 593.33,359.68"/>
    </edge>
    <edge id=":1533458290_5" function="internal">
        <lane id=":1533458290_5_0" index="0" disallow="tram rail_urban rail rail_electric ship" speed="3.65" length="2.34" shape="593.26,359.51 592.91,360.91 592.29,361.55"/>
    </edge>
    <edge id=":1533458290_7" function="internal">
        <lane id=":1533458290_7_0" index="0" disallow="tram rail_urban rail rail_electric ship" speed="3.65" length="2.34" shape="592.29,361.55 591.40,361.44 590.25,360.58"/>
    </edge>
    <edge id=":1533458303_0" function="internal">
        <lane id=":1533458303_0_0" index="0" disallow="tram rail_urban rail rail_electric ship" speed="3.65" length="4.67" shape="475.51,0.10 476.23,-1.15 477.01,-1.60 477.83,-1.25 478.70,-0.10"/>
    </edge>
    <edge id=":1559029804_0" function="internal">
        <lane id=":1559029804_0_0" index="0" disallow="tram rail_urban rail rail_electric ship" speed="27.78" length="9.68" shape="717.09,664.38 716.41,661.80 716.89,659.86 717.61,657.84 717.65,655.02"/>
        <lane id=":1559029804_0_1" index="1" disallow="tram rail_urban rail rail_electric ship" speed="27.78" length="9.68" shape="719.96,662.95 719.29,660.35 719.81,658.39 720.58,656.36 720.63,653.51"/>
    </edge>
    <edge id=":1559029804_2" function="internal">
        <lane id=":1559029804_2_0" index="0" disallow="tram rail_urban rail rail_electric ship" speed="3.65" length="1.97" shape="719.96,662.95 720.14,661.52 720.46,661.10"/>
    </edge>
    <edge id=":1559029804_6" function="internal">
        <lane id=":1559029804_6_0" index="0" disallow="tram rail_urban rail rail_electric ship" speed="3.65" length="2.70" shape="720.46,661.10 720.68,660.81 721.57,660.81 722.82,661.53"/>
    </edge>
    <edge id=":1559029804_3" function="internal">
        <lane id=":1559029804_3_0" index="0" disallow="tram rail_urban rail rail_electric ship" speed="3.86" length="4.85" shape="719.01,654.33 718.11,652.90 717.58,652.53 717.43,653.24 717.65,655.02"/>
    </edge>
    <edge id=":1559029804_4" function="internal">
        <lane id=":1559029804_4_0" index="0" disallow="tram rail_urban rail rail_electric ship" speed="27.78" length="9.01" shape="719.01,654.33 720.67,656.31 722.41,657.19 724.11,658.08 725.69,660.10"/>
        <lane id=":1559029804_4_1" index="1" disallow="tram rail_urban rail rail_electric ship" speed="27.78" length="9.01" shape="716.15,655.78 717.81,657.75 719.55,658.62 721.25,659.51 722.82,661.53"/>
    </edge>
    <edge id=":1559029805_0" function="internal">
        <lane id=":1559029805_0_0" index="0" disallow="tram rail_urban rail rail_electric ship" speed="7.36" length="12.91" shape="609.59,378.40 606.29,379.72 604.34,381.79 603.76,384.61 604.54,388.16"/>
    </edge>
    <edge id=":1559029805_1" function="internal">
        <lane id=":1559029805_1_0" index="0" disallow="tram rail_urban rail rail_electric ship" speed="27.78" length="21.35" shape="609.59,378.40 603.80,380.32 599.82,382.47 595.86,384.70 590.13,386.85"/>
        <lane id=":1559029805_1_1" index="1" disallow="tram rail_urban rail rail_electric ship" speed="27.78" length="21.35" shape="608.84,375.29 603.03,377.21 599.00,379.37 595.00,381.62 589.25,383.77"/>
    </edge>
    <edge id=":1559029805_3" function="internal">
        <lane id=":1559029805_3_0" index="0" disallow="tram rail_urban rail rail_electric ship" speed="9.41" length="17.74" shape="608.84,375.29 603.58,375.96 599.33,375.22 596.08,373.06 593.84,369.47"/>
    </edge>
    <edge id=":1559029805_4" function="internal">
        <lane id=":1559029805_4_0" index="0" disallow="tram rail_urban rail rail_electric ship" speed="27.78" length="21.64" shape="599.77,367.07 601.61,372.96 602.26,377.58 602.85,382.21 604.54,388.16"/>
        <lane id=":1559029805_4_1" index="1" disallow="tram rail_urban rail rail_electric ship" speed="27.78" length="21.64" shape="596.81,368.27 598.64,374.15 599.28,378.73 599.86,383.34 601.53,389.27"/>
    </edge>
    <edge id=":1559029805_6" function="internal">
        <lane id=":1559029805_6_0" index="0" disallow="tram rail_urban rail rail_electric ship" speed="9.10" length="20.18" shape="596.81,368.27 598.15,373.72 597.34,378.12 594.37,381.47 589.25,383.77"/>
    </edge>
    <edge id=":1559029805_7" function="internal">
        <lane id=":1559029805_7_0" index="0" disallow="tram rail_urban rail rail_electric ship" speed="3.65" length="4.67" shape="596.81,368.27 596.52,369.69 595.93,370.36 595.03,370.29 593.84,369.47"/>
    </edge>
    <edge id=":1559029805_8" function="internal">
        <lane id=":1559029805_8_0" index="0" disallow="tram rail_urban rail rail_electric ship" speed="6.29" length="9.04" shape="587.49,377.62 589.78,376.59 591.11,375.09 591.48,373.12 590.88,370.67"/>
    </edge>
    <edge id=":1559029805_9" function="internal">
        <lane id=":1559029805_9_0" index="0" disallow="tram rail_urban rail rail_electric ship" speed="10.22" length="10.15" shape="587.49,377.62 593.01,377.01 597.38,378.45"/>
    </edge>
    <edge id=":1559029805_10" function="internal">
        <lane id=":1559029805_10_0" index="0" disallow="tram rail_urban rail rail_electric ship" speed="9.10" length="5.03" shape="588.37,380.70 592.58,380.27 593.33,380.53"/>
    </edge>
    <edge id=":1559029805_11" function="internal">
        <lane id=":1559029805_11_0" index="0" disallow="tram rail_urban rail rail_electric ship" speed="3.65" length="2.19" shape="588.37,380.70 589.74,381.14 590.25,381.69"/>
    </edge>
    <edge id=":1559029805_12" function="internal">
        <lane id=":1559029805_12_0" index="0" disallow="tram rail_urban rail rail_electric ship" speed="10.22" length="12.28" shape="597.38,378.45 597.69,378.56 601.53,382.27 604.54,388.16"/>
    </edge>
    <edge id=":1559029805_13" function="internal">
        <lane id=":1559029805_13_0" index="0" disallow="tram rail_urban rail rail_electric ship" speed="9.10" length="12.54" shape="593.33,380.53 596.17,381.55 599.16,384.55 601.53,389.27"/>
    </edge>
    <edge id=":1559029805_14" function="internal">
        <lane id=":1559029805_14_0" index="0" disallow="tram rail_urban rail rail_electric ship" speed="3.65" length="2.48" shape="590.25,381.69 590.35,381.80 590.18,382.68 589.25,383.77"/>
    </edge>
    <edge id=":1567399422_0" function="internal">
        <lane id=":1567399422_0_0" index="0" disallow="tram rail_urban rail rail_electric ship" speed="27.78" length="13.64" shape="856.23,310.88 852.32,311.05 849.64,311.30 847.02,311.89 843.30,313.07"/>
        <lane id=":1567399422_0_1" index="1" disallow="tram rail_urban rail rail_electric ship" speed="27.78" length="13.64" shape="856.09,307.69 851.92,307.86 849.06,308.14 846.27,308.77 842.29,310.03"/>
    </edge>
    <edge id=":1567399422_2" function="internal">
        <lane id=":1567399422_2_0" index="0" disallow="tram rail_urban rail rail_electric ship" speed="7.16" length="11.89" shape="856.09,307.69 852.20,307.47 849.45,306.46 847.86,304.64 847.43,302.03"/>
    </edge>
    <edge id=":1567399422_3" function="internal">
        <lane id=":1567399422_3_0" index="0" disallow="tram rail_urban rail rail_electric ship" speed="8.69" length="12.16" shape="850.62,302.18 850.01,304.60 848.42,306.72 845.84,308.53 842.29,310.03"/>
    </edge>
    <edge id=":1567399422_4" function="internal">
        <lane id=":1567399422_4_0" index="0" disallow="tram rail_urban rail rail_electric ship" speed="3.65" length="4.67" shape="850.62,302.18 849.77,303.34 848.95,303.70 848.17,303.27 847.43,302.03"/>
    </edge>
    <edge id=":1567412943_0" function="internal">
        <lane id=":1567412943_0_0" index="0" disallow="tram rail_urban rail rail_electric ship" speed="4.14" length="4.91" shape="993.64,227.17 992.88,225.78 992.14,225.33 991.40,225.80 990.67,227.20"/>
    </edge>
    <edge id=":1567412943_1" function="internal">
        <lane id=":1567412943_1_0" index="0" disallow="tram rail_urban rail rail_electric ship" speed="6.53" length="14.73" shape="996.60,225.95 994.33,221.79 992.09,220.42 989.88,221.84 987.69,226.04"/>
    </edge>
    <edge id=":1567413054_0" function="internal">
        <lane id=":1567413054_0_0" index="0" disallow="tram rail_urban rail rail_electric ship" speed="3.65" length="4.67" shape="848.53,278.84 849.38,277.68 850.20,277.32 850.98,277.76 851.72,279.00"/>
    </edge>
    <edge id=":1567439478_0" function="internal">
        <lane id=":1567439478_0_0" index="0" disallow="tram rail_urban rail rail_electric ship" speed="3.65" length="4.67" shape="1118.26,639.81 1119.66,640.16 1120.30,640.78 1120.19,641.67 1119.33,642.82"/>
    </edge>
    <edge id=":2423731070_0" function="internal">
        <lane id=":2423731070_0_0" index="0" disallow="tram rail_urban rail rail_electric ship" speed="5.86" length="7.10" shape="961.46,298.24 960.52,299.93 960.09,301.38 960.15,302.61 960.71,303.59"/>
        <lane id=":2423731070_0_1" index="1" disallow="tram rail_urban rail rail_electric ship" speed="6.90" length="7.10" shape="958.34,297.16 957.05,299.53 956.49,301.61 956.66,303.40 957.55,304.89"/>
    </edge>
    <edge id=":2423731070_2" function="internal">
        <lane id=":2423731070_2_0" index="0" disallow="tram rail_urban rail rail_electric ship" speed="12.02" length="6.92" shape="958.34,297.16 956.07,303.69"/>
    </edge>
    <edge id=":2423731070_3" function="internal">
        <lane id=":2423731070_3_0" index="0" disallow="tram rail_urban rail rail_electric ship" speed="10.61" length="5.34" shape="958.34,297.16 957.48,298.49 956.82,299.38 955.99,300.08 954.62,300.83"/>
    </edge>
    <edge id=":2423731072_0" function="internal">
        <lane id=":2423731072_0_0" index="0" disallow="tram rail_urban rail rail_electric ship" speed="11.70" length="8.15" shape="960.85,303.74 962.14,305.25 963.07,306.32 964.16,307.10 965.97,307.78"/>
        <lane id=":2423731072_0_1" index="1" disallow="tram rail_urban rail rail_electric ship" speed="13.98" length="8.15" shape="957.68,305.04 959.55,307.21 960.89,308.75 962.46,309.88 965.07,310.86"/>
    </edge>
    <edge id=":2423731072_2" function="internal">
        <lane id=":2423731072_2_0" index="0" disallow="tram rail_urban rail rail_electric ship" speed="5.04" length="8.03" shape="957.68,305.04 959.43,307.29 959.84,308.86 958.91,309.76 956.65,309.97"/>
    </edge>
    <edge id=":2423731072_3" function="internal">
        <lane id=":2423731072_3_0" index="0" disallow="tram rail_urban rail rail_electric ship" speed="3.58" length="3.20" shape="957.68,305.04 958.27,305.84 958.31,306.40 957.80,306.71 956.75,306.77"/>
    </edge>
    <edge id=":2423731076_0" function="internal">
        <lane id=":2423731076_0_0" index="0" disallow="tram rail_urban rail rail_electric ship" speed="7.42" length="3.80" shape="978.62,311.83 976.94,308.42"/>
    </edge>
    <edge id=":2423731076_1" function="internal">
        <lane id=":2423731076_1_0" index="0" disallow="tram rail_urban rail rail_electric ship" speed="4.22" length="2.10" shape="979.16,308.67 978.17,308.46 977.12,308.19"/>
    </edge>
    <edge id=":2423731076_4" function="internal">
        <lane id=":2423731076_4_0" index="0" disallow="tram rail_urban rail rail_electric ship" speed="7.42" length="5.71" shape="976.94,308.42 974.41,303.30"/>
    </edge>
    <edge id=":2423731076_5" function="internal">
        <lane id=":2423731076_5_0" index="0" disallow="tram rail_urban rail rail_electric ship" speed="4.22" length="1.75" shape="977.12,308.19 976.97,308.15 976.05,307.73 975.89,307.16"/>
    </edge>
    <edge id=":2423731076_2" function="internal">
        <lane id=":2423731076_2_0" index="0" disallow="tram rail_urban rail rail_electric ship" speed="4.78" length="7.10" shape="969.17,307.83 974.41,303.30"/>
        <lane id=":2423731076_2_1" index="1" disallow="tram rail_urban rail rail_electric ship" speed="8.71" length="7.10" shape="969.90,310.94 971.93,310.32 973.61,309.48 974.93,308.43 975.89,307.16"/>
    </edge>
    <edge id=":2423731081_0" function="internal">
        <lane id=":2423731081_0_0" index="0" disallow="tram rail_urban rail rail_electric ship" speed="7.25" length="8.94" shape="974.58,300.98 973.95,298.60 972.95,296.79 971.56,295.54 969.80,294.86"/>
        <lane id=":2423731081_0_1" index="1" disallow="tram rail_urban rail rail_electric ship" speed="7.76" length="8.94" shape="974.58,300.98 973.86,297.15 973.15,294.38 972.43,292.66 971.72,291.99"/>
    </edge>
    <edge id=":2423731081_2" function="internal">
        <lane id=":2423731081_2_0" index="0" disallow="tram rail_urban rail rail_electric ship" speed="19.88" length="10.52" shape="974.58,300.98 974.29,297.92 974.57,295.82 975.25,293.73 976.14,290.73"/>
    </edge>
    <edge id=":2423731081_3" function="internal">
        <lane id=":2423731081_3_0" index="0" disallow="tram rail_urban rail rail_electric ship" speed="18.62" length="9.21" shape="977.74,300.46 977.51,297.79 977.80,295.95 978.44,294.13 979.25,291.51"/>
    </edge>
    <edge id=":2583203261_0" function="internal">
        <lane id=":2583203261_0_0" index="0" disallow="tram rail_urban rail rail_electric ship" speed="27.78" length="14.84" shape="956.45,309.96 941.59,309.53"/>
        <lane id=":2583203261_0_1" index="1" disallow="tram rail_urban rail rail_electric ship" speed="27.78" length="14.84" shape="956.55,306.76 941.74,306.33"/>
    </edge>
    <edge id=":2583203261_2" function="internal">
        <lane id=":2583203261_2_0" index="0" disallow="tram rail_urban rail rail_electric ship" speed="19.02" length="14.96" shape="955.89,303.78 951.82,306.16 949.03,308.06 946.10,309.26 941.59,309.53"/>
        <lane id=":2583203261_2_1" index="1" disallow="tram rail_urban rail rail_electric ship" speed="18.02" length="14.96" shape="954.44,300.92 950.82,303.10 948.35,304.89 945.76,306.05 941.74,306.33"/>
    </edge>
    <edge id=":2583203296_0" function="internal">
        <lane id=":2583203296_0_0" index="0" disallow="tram rail_urban rail rail_electric ship" speed="3.65" length="4.67" shape="1219.71,631.78 1219.19,633.13 1218.50,633.69 1217.63,633.47 1216.59,632.47"/>
    </edge>
    <edge id=":2649102749_0" function="internal">
        <lane id=":2649102749_0_0" index="0" disallow="tram rail_urban rail rail_electric ship" speed="7.18" length="9.68" shape="854.92,633.53 855.17,636.27 856.10,638.39 857.69,639.88 859.97,640.74"/>
    </edge>
    <edge id=":2649102749_1" function="internal">
        <lane id=":2649102749_1_0" index="0" disallow="tram rail_urban rail rail_electric ship" speed="3.65" length="4.67" shape="854.92,633.53 854.09,634.71 853.28,635.08 852.49,634.66 851.72,633.44"/>
    </edge>
    <edge id=":2649102749_2" function="internal">
        <lane id=":2649102749_2_0" index="0" disallow="tram rail_urban rail rail_electric ship" speed="6.35" length="9.04" shape="845.87,638.57 848.37,638.47 850.18,637.58 851.30,635.90 851.72,633.44"/>
    </edge>
    <edge id=":2649102749_3" function="internal">
        <lane id=":2649102749_3_0" index="0" disallow="tram rail_urban rail rail_electric ship" speed="27.78" length="14.11" shape="845.87,638.57 850.08,639.01 852.96,639.38 855.82,639.88 859.97,640.74"/>
        <lane id=":2649102749_3_1" index="1" disallow="tram rail_urban rail rail_electric ship" speed="27.78" length="14.11" shape="845.54,641.76 849.65,642.18 852.46,642.54 855.25,643.03 859.31,643.87"/>
    </edge>
    <edge id=":2649102750_0" function="internal">
        <lane id=":2649102750_0_0" index="0" disallow="tram rail_urban rail rail_electric ship" speed="6.96" length="9.57" shape="862.65,560.58 860.27,561.14 858.54,562.41 857.45,564.39 857.02,567.08"/>
    </edge>
    <edge id=":2649102750_1" function="internal">
        <lane id=":2649102750_1_0" index="0" disallow="tram rail_urban rail rail_electric ship" speed="13.89" length="14.40" shape="862.65,560.58 848.30,561.65"/>
    </edge>
    <edge id=":2649102750_2" function="internal">
        <lane id=":2649102750_2_0" index="0" disallow="tram rail_urban rail rail_electric ship" speed="3.65" length="2.34" shape="862.65,560.58 861.39,559.87 860.93,559.11"/>
    </edge>
    <edge id=":2649102750_9" function="internal">
        <lane id=":2649102750_9_0" index="0" disallow="tram rail_urban rail rail_electric ship" speed="3.65" length="2.34" shape="860.93,559.11 861.27,558.28 862.41,557.39"/>
    </edge>
    <edge id=":2649102750_3" function="internal">
        <lane id=":2649102750_3_0" index="0" disallow="tram rail_urban rail rail_electric ship" speed="13.89" length="14.34" shape="848.11,558.44 851.73,557.99 855.24,557.76 858.76,557.60 862.41,557.39"/>
    </edge>
    <edge id=":2649102750_4" function="internal">
        <lane id=":2649102750_4_0" index="0" disallow="tram rail_urban rail rail_electric ship" speed="7.66" length="6.64" shape="848.11,558.44 852.15,558.41 854.47,559.58"/>
    </edge>
    <edge id=":2649102750_5" function="internal">
        <lane id=":2649102750_5_0" index="0" disallow="tram rail_urban rail rail_electric ship" speed="3.66" length="2.35" shape="848.11,558.44 849.36,559.17 849.81,559.95"/>
    </edge>
    <edge id=":2649102750_10" function="internal">
        <lane id=":2649102750_10_0" index="0" disallow="tram rail_urban rail rail_electric ship" speed="7.66" length="8.25" shape="854.47,559.58 854.98,559.84 856.60,562.73 857.02,567.08"/>
    </edge>
    <edge id=":2649102750_11" function="internal">
        <lane id=":2649102750_11_0" index="0" disallow="tram rail_urban rail rail_electric ship" speed="3.66" length="2.35" shape="849.81,559.95 849.45,560.78 848.30,561.65"/>
    </edge>
    <edge id=":2649102750_6" function="internal">
        <lane id=":2649102750_6_0" index="0" disallow="tram rail_urban rail rail_electric ship" speed="6.16" length="9.20" shape="853.82,566.96 853.56,564.28 852.55,562.51 850.80,561.63 848.30,561.65"/>
    </edge>
    <edge id=":2649102750_7" function="internal">
        <lane id=":2649102750_7_0" index="0" disallow="tram rail_urban rail rail_electric ship" speed="8.38" length="14.32" shape="853.82,566.96 854.48,563.01 856.13,560.10 858.77,558.23 862.41,557.39"/>
    </edge>
    <edge id=":2649102750_8" function="internal">
        <lane id=":2649102750_8_0" index="0" disallow="tram rail_urban rail rail_electric ship" speed="3.65" length="4.67" shape="853.82,566.96 854.66,565.79 855.48,565.42 856.26,565.85 857.02,567.08"/>
    </edge>
    <edge id=":2896521720_0" function="internal">
        <lane id=":2896521720_0_0" index="0" disallow="tram rail_urban rail rail_electric ship" speed="9.22" length="11.21" shape="704.11,626.67 705.34,628.39 707.36,629.77 710.17,630.80 713.77,631.48"/>
    </edge>
    <edge id=":2896521720_1" function="internal">
        <lane id=":2896521720_1_0" index="0" disallow="tram rail_urban rail rail_electric ship" speed="9.63" length="12.31" shape="704.11,626.67 705.85,629.87 707.88,632.25 710.21,633.83 712.82,634.59"/>
    </edge>
    <edge id=":2896521720_2" function="internal">
        <lane id=":2896521720_2_0" index="0" disallow="tram rail_urban rail rail_electric ship" speed="27.78" length="13.00" shape="704.11,626.67 710.06,638.07"/>
        <lane id=":2896521720_2_1" index="1" disallow="tram rail_urban rail rail_electric ship" speed="27.78" length="13.00" shape="701.19,627.96 707.26,639.61"/>
    </edge>
    <edge id=":2896521722_0" function="internal">
        <lane id=":2896521722_0_0" index="0" disallow="tram rail_urban rail rail_electric ship" speed="27.78" length="0.31" shape="634.65,470.15 634.67,470.19 634.68,470.22 634.69,470.25 634.71,470.29"/>
        <lane id=":2896521722_0_1" index="1" disallow="tram rail_urban rail rail_electric ship" speed="27.78" length="0.31" shape="631.61,471.13 631.65,471.27 631.68,471.36 631.72,471.44 631.77,471.57"/>
    </edge>
    <edge id=":2896521726_0" function="internal">
        <lane id=":2896521726_0_0" index="0" disallow="tram rail_urban rail rail_electric ship" speed="27.78" length="10.51" shape="716.77,631.87 719.79,632.30 721.86,632.61 723.94,632.78 726.99,632.79"/>
        <lane id=":2896521726_0_1" index="1" disallow="tram rail_urban rail rail_electric ship" speed="27.78" length="10.51" shape="716.36,635.04 719.52,635.49 721.69,635.81 723.86,635.98 727.04,635.99"/>
    </edge>
    <edge id=":2896521726_2" function="internal">
        <lane id=":2896521726_2_0" index="0" disallow="tram rail_urban rail rail_electric ship" speed="9.61" length="2.65" shape="718.00,639.23 719.59,637.12"/>
    </edge>
    <edge id=":2896521726_3" function="internal">
        <lane id=":2896521726_3_0" index="0" disallow="tram rail_urban rail rail_electric ship" speed="8.56" length="5.18" shape="720.32,641.54 722.06,639.13 723.61,637.56"/>
    </edge>
    <edge id=":2896521726_4" function="internal">
        <lane id=":2896521726_4_0" index="0" disallow="tram rail_urban rail rail_electric ship" speed="9.61" length="8.86" shape="719.59,637.12 720.09,636.45 722.29,634.45 724.59,633.23 726.99,632.79"/>
    </edge>
    <edge id=":2896521726_5" function="internal">
        <lane id=":2896521726_5_0" index="0" disallow="tram rail_urban rail rail_electric ship" speed="8.56" length="3.84" shape="723.61,637.56 723.77,637.41 725.43,636.36 727.04,635.99"/>
    </edge>
    <edge id=":298726484_0" function="internal">
        <lane id=":298726484_0_0" index="0" disallow="tram rail_urban rail rail_electric ship" speed="6.73" length="6.03" shape="986.99,316.92 986.42,315.46 985.55,314.30 984.38,313.45 982.91,312.89"/>
    </edge>
    <edge id=":298726484_1" function="internal">
        <lane id=":298726484_1_0" index="0" disallow="tram rail_urban rail rail_electric ship" speed="7.67" length="8.03" shape="986.99,316.92 986.12,313.94 985.28,311.76 984.47,310.38 983.68,309.79"/>
    </edge>
    <edge id=":298726484_2" function="internal">
        <lane id=":298726484_2_0" index="0" disallow="tram rail_urban rail rail_electric ship" speed="7.57" length="5.41" shape="986.99,316.92 985.54,312.97"/>
        <lane id=":298726484_2_1" index="1" disallow="tram rail_urban rail rail_electric ship" speed="9.35" length="5.41" shape="990.09,316.12 989.69,314.18 989.41,312.78 988.80,311.60 987.39,310.36"/>
    </edge>
    <edge id=":3212224895_0" function="internal">
        <lane id=":3212224895_0_0" index="0" disallow="tram rail_urban rail rail_electric ship" speed="27.78" length="0.23" shape="581.19,389.41 581.00,389.47"/>
        <lane id=":3212224895_0_1" index="1" disallow="tram rail_urban rail rail_electric ship" speed="27.78" length="0.23" shape="580.31,386.33 580.07,386.41"/>
    </edge>
    <edge id=":3212224895_2" function="internal">
        <lane id=":3212224895_2_0" index="0" disallow="tram rail_urban rail rail_electric ship" speed="3.65" length="2.34" shape="580.31,386.33 578.94,385.89 578.33,385.24"/>
    </edge>
    <edge id=":3212224895_6" function="internal">
        <lane id=":3212224895_6_0" index="0" disallow="tram rail_urban rail rail_electric ship" speed="3.65" length="2.34" shape="578.33,385.24 578.50,384.36 579.43,383.26"/>
    </edge>
    <edge id=":3212224895_3" function="internal">
        <lane id=":3212224895_3_0" index="0" disallow="tram rail_urban rail rail_electric ship" speed="27.78" length="0.34" shape="578.20,380.28 578.55,380.18"/>
        <lane id=":3212224895_3_1" index="1" disallow="tram rail_urban rail rail_electric ship" speed="27.78" length="0.34" shape="579.13,383.35 579.43,383.26"/>
    </edge>
    <edge id=":3212224895_5" function="internal">
        <lane id=":3212224895_5_0" index="0" disallow="tram rail_urban rail rail_electric ship" speed="3.65" length="2.34" shape="579.13,383.35 580.51,383.76 581.13,384.41"/>
    </edge>
    <edge id=":3212224895_7" function="internal">