<?xml version="1.0" encoding="UTF-8"?>

<!-- generated on Mon Mar 18 23:23:29 2019 by Eclipse SUMO polyconvert Version 1.1.0
<configuration xmlns:xsi="http://www.w3.org/2001/XMLSchema-instance" xsi:noNamespaceSchemaLocation="http://sumo.dlr.de/xsd/polyconvertConfiguration.xsd">

    <input>
        <net-file value="AB.net.xml"/>
        <osm-files value="Alun2batu.osm"/>
        <type-file value="osmPolyconvert.typ.xml"/>
    </input>

    <output>
        <output-file value="AB.poly.xml"/>
    </output>

    <processing>
        <poi-layer-offset value="5"/>
    </processing>

</configuration>
-->

<additional xmlns:xsi="http://www.w3.org/2001/XMLSchema-instance" xsi:noNamespaceSchemaLocation="http://sumo.dlr.de/xsd/additional_file.xsd">
    <location netOffset="-667422.10,870621.31" convBoundary="-0.00,0.00,1218.15,761.88" origBoundary="112.518613,-7.873522,112.529657,-7.866617" projParameter="+proj=utm +zone=49 +ellps=WGS84 +datum=WGS84 +units=m +no_defs"/>

    <poly id="259489763" type="amenity" color="237,199,199" fill="1" layer="-1.00" shape="831.248500,359.246179 842.889555,397.501146 883.681598,379.912205 902.646415,373.273925 898.421656,321.555166 828.539307,326.963682 831.248500,359.246179"/>
    <poly id="259489763#1" type="building" color="255,230,230" fill="1" layer="-1.00" shape="831.248500,359.246179 842.889555,397.501146 883.681598,379.912205 902.646415,373.273925 898.421656,321.555166 828.539307,326.963682 831.248500,359.246179"/>
    <poly id="307316414" type="building" color="255,230,230" fill="1" layer="-1.00" shape="920.425499,401.298990 975.348614,400.202707 974.745710,370.986922 919.833699,372.094230 920.425499,401.298990"/>
    <poly id="307316414#1" type="shop" color="237,199,255" fill="1" layer="-1.00" shape="920.425499,401.298990 975.348614,400.202707 974.745710,370.986922 919.833699,372.094230 920.425499,401.298990"/>
    <poly id="326495362" type="historic" color="128,255,128" fill="1" layer="-1.00" shape="970.024750,298.158256 968.588676,297.466780 966.999998,297.262459 965.435232,297.566767 964.048597,298.334904 962.961108,299.489015 962.304728,300.929087 962.134593,302.654919 962.570789,304.334300 963.557415,305.757314 964.972566,306.758520 966.650431,307.227932 968.381250,307.099962 969.966617,306.397454 971.219352,305.198503 971.941976,303.780307 972.178879,302.220117 971.908493,300.650721 971.164586,299.259998 970.024750,298.158256"/>
    <poly id="403398949" type="amenity" color="237,199,199" fill="1" layer="-1.00" shape="955.273759,489.422920 983.488423,482.197895 981.584925,450.133626 949.752689,451.145620 955.273759,489.422920"/>
    <poly id="403398949#1" type="building" color="255,230,230" fill="1" layer="-1.00" shape="955.273759,489.422920 983.488423,482.197895 981.584925,450.133626 949.752689,451.145620 955.273759,489.422920"/>
    <poly id="403398960" type="building" color="255,230,230" fill="1" layer="-1.00" shape="603.588243,370.936134 832.517695,305.129692 829.899980,294.898577 599.441552,361.739074 603.588243,370.936134"/>
    <poly id="403402555" type="water" color="181,209,209" fill="0" layer="-4.00" shape="607.066143,484.112569 626.537040,471.080459 660.490947,447.080305 703.480060,402.963989 776.506135,346.385142"/>
    <poly id="545592772" type="amenity" color="237,199,199" fill="1" layer="-1.00" shape="749.658576,625.723556 757.201763,625.850885 757.317863,618.374557 749.774719,618.258288 749.658576,625.723556"/>
    <poly id="545592772#1" type="building" color="255,230,230" fill="1" layer="-1.00" shape="749.658576,625.723556 757.201763,625.850885 757.317863,618.374557 749.774719,618.258288 749.658576,625.723556"/>
    <poly id="545592773" type="building" color="255,230,230" fill="1" layer="-1.00" shape="746.493843,625.757211 749.173459,625.747443 749.157858,621.467655 746.478242,621.477423 746.493843,625.757211"/>
    <poly id="545592774" type="building" color="255,230,230" fill="1" layer="-1.00" shape="765.186119,625.998722 770.071462,626.058324 770.155084,618.748000 765.269742,618.688398 765.186119,625.998722"/>
    <poly id="545592778" type="building" color="255,230,230" fill="1" layer="-1.00" shape="1074.421912,636.703494 1079.461201,636.640852 1079.349959,627.318484 1074.321659,627.370027 1074.421912,636.703494"/>
    <poly id="545592779" type="amenity" color="237,199,199" fill="1" layer="-1.00" shape="1063.569449,639.308827 1073.394197,639.129178 1073.201566,628.656967 1063.365833,628.847716 1063.569449,639.308827"/>
    <poly id="545592779#1" type="building" color="255,230,230" fill="1" layer="-1.00" shape="1063.569449,639.308827 1073.394197,639.129178 1073.201566,628.656967 1063.365833,628.847716 1063.569449,639.308827"/>
    <poly id="545592780" type="building" color="255,230,230" fill="1" layer="-1.00" shape="1054.771850,639.927085 1062.600667,639.754727 1062.362960,629.017264 1054.523158,629.200721 1054.771850,639.927085"/>
    <poly id="545592781" type="building" color="255,230,230" fill="1" layer="-1.00" shape="1012.604007,637.150412 1026.949356,636.799441 1026.689158,625.940412 1012.343813,626.291383 1012.604007,637.150412"/>
    <poly id="545592782" type="building" color="255,230,230" fill="1" layer="-1.00" shape="1001.224420,637.335724 1009.648706,637.161201 1009.394170,624.831300 1000.958859,625.005863 1001.224420,637.335724"/>
    <poly id="545592783" type="building" color="255,230,230" fill="1" layer="-1.00" shape="990.732908,639.132412 999.752665,638.955717 999.429309,622.877052 990.409555,623.053748 990.732908,639.132412"/>
    <poly id="545592784" type="building" color="255,230,230" fill="1" layer="-1.00" shape="965.726650,637.166709 982.290651,637.404843 982.571424,617.652372 966.007430,617.414240 965.726650,637.166709"/>
    <poly id="545592786" type="building" color="255,230,230" fill="1" layer="-1.00" shape="914.275410,640.882308 926.703106,640.836960 926.657020,628.207707 914.229328,628.253056 914.275410,640.882308"/>
    <poly id="545592787" type="building" color="255,230,230" fill="1" layer="-1.00" shape="897.567817,640.578320 907.988272,640.462887 907.870327,629.293690 897.438847,629.409164 897.567817,640.578320"/>
    <poly id="545592788" type="amenity" color="237,199,199" fill="1" layer="-1.00" shape="888.019333,637.892634 896.521896,638.016440 896.721415,623.185544 888.218896,623.072798 888.019333,637.892634"/>
    <poly id="545592788#1" type="building" color="255,230,230" fill="1" layer="-1.00" shape="888.019333,637.892634 896.521896,638.016440 896.721415,623.185544 888.218896,623.072798 888.019333,637.892634"/>
    <poly id="545592789" type="building" color="255,230,230" fill="1" layer="-1.00" shape="877.436470,635.807907 885.861801,635.920938 886.064067,621.842047 877.627671,621.717999 877.436470,635.807907"/>
    <poly id="545592790" type="building" color="255,230,230" fill="1" layer="-1.00" shape="866.857037,634.663183 874.180209,634.935063 874.481293,626.783456 867.158163,626.522635 866.857037,634.663183"/>
    <poly id="545592792" type="building" color="255,230,230" fill="1" layer="-1.00" shape="820.251982,630.719207 843.256962,631.232494 843.786473,607.099751 820.792573,606.597485 820.251982,630.719207"/>
    <poly id="545592793" type="building" color="255,230,230" fill="1" layer="-1.00" shape="798.781580,621.618505 812.310938,621.281634 812.105506,613.330939 798.576150,613.667810 798.781580,621.618505"/>
    <poly id="545592794" type="building" color="255,230,230" fill="1" layer="-1.00" shape="778.245298,626.758420 786.074911,626.807286 786.165846,612.430214 778.325248,612.392447 778.245298,626.758420"/>
    <poly id="545592794#1" type="shop" color="237,199,255" fill="1" layer="-1.00" shape="778.245298,626.758420 786.074911,626.807286 786.165846,612.430214 778.325248,612.392447 778.245298,626.758420"/>
    <poly id="545592795" type="building" color="255,230,230" fill="1" layer="-1.00" shape="770.757348,623.633896 776.822564,623.678137 776.922815,611.855668 770.868588,611.800328 770.757348,623.633896"/>
    <poly id="545592795#1" type="shop" color="237,199,255" fill="1" layer="-1.00" shape="770.757348,623.633896 776.822564,623.678137 776.922815,611.855668 770.868588,611.800328 770.757348,623.633896"/>
    <poly id="545592796" type="building" color="255,230,230" fill="1" layer="-1.00" shape="760.643708,626.236462 764.558252,626.189014 764.449211,617.452778 760.534668,617.500226 760.643708,626.236462"/>
    <poly id="545592797" type="building" color="255,230,230" fill="1" layer="-1.00" shape="743.262947,625.791106 746.218243,625.780333 746.202441,621.445252 743.247145,621.456024 743.262947,625.791106"/>
    <poly id="545592798" type="building" color="255,230,230" fill="1" layer="-1.00" shape="735.863680,625.818077 741.641341,625.631132 741.306640,615.491222 735.540007,615.678128 735.863680,625.818077"/>
    <poly id="545592798#1" type="shop" color="237,199,255" fill="1" layer="-1.00" shape="735.863680,625.818077 741.641341,625.631132 741.306640,615.491222 735.540007,615.678128 735.863680,625.818077"/>
    <poly id="545592799" type="amenity" color="237,199,199" fill="1" layer="-1.00" shape="707.607967,621.807103 737.431978,608.328036 732.452118,597.464104 702.628114,610.943169 707.607967,621.807103"/>
    <poly id="545592799#1" type="building" color="255,230,230" fill="1" layer="-1.00" shape="707.607967,621.807103 737.431978,608.328036 732.452118,597.464104 702.628114,610.943169 707.607967,621.807103"/>
    <poly id="545592800" type="building" color="255,230,230" fill="1" layer="-1.00" shape="693.972117,653.441376 703.548638,648.695333 696.395156,634.466316 686.818638,639.212358 693.972117,653.441376"/>
    <poly id="545592800#1" type="shop" color="237,199,255" fill="1" layer="-1.00" shape="693.972117,653.441376 703.548638,648.695333 696.395156,634.466316 686.818638,639.212358 693.972117,653.441376"/>
    <poly id="545592861" type="building" color="255,230,230" fill="1" layer="-1.00" shape="934.076009,639.626738 960.758250,638.522987 960.070686,622.357182 933.399522,623.471952 934.076009,639.626738"/>
    <poly id="545593899" type="building" color="255,230,230" fill="1" layer="-1.00" shape="733.171884,670.893430 743.990050,664.926359 740.693437,659.032854 729.875272,664.999924 733.171884,670.893430"/>
    <poly id="545593899#1" type="shop" color="237,199,255" fill="1" layer="-1.00" shape="733.171884,670.893430 743.990050,664.926359 740.693437,659.032854 729.875272,664.999924 733.171884,670.893430"/>
    <poly id="545593901" type="building" color="255,230,230" fill="1" layer="-1.00" shape="741.802749,685.039646 762.958644,674.412216 759.582135,667.778047 738.426284,678.416536 741.802749,685.039646"/>
    <poly id="545594037" type="shop" color="237,199,255" fill="1" layer="-1.00" shape="653.430613,506.824771 665.542834,501.925723 666.956949,505.669580 654.777194,510.192867 653.430613,506.824771"/>
    <poly id="545594038" type="shop" color="237,199,255" fill="1" layer="-1.00" shape="649.556133,499.705817 664.841805,494.142723 667.090454,499.940518 652.908306,505.720772 649.556133,499.705817"/>
    <poly id="545594039" type="amenity" color="237,199,199" fill="1" layer="-1.00" shape="676.808246,552.125827 684.713487,548.724016 688.672033,560.752870 682.038425,565.112183 676.808246,552.125827"/>
    <poly id="545594040" type="building" color="255,230,230" fill="1" layer="-1.00" shape="668.726270,543.341234 688.511401,534.831097 691.639224,542.826433 672.815350,551.852842 668.726270,543.341234"/>
    <poly id="545594041" type="building" color="255,230,230" fill="1" layer="-1.00" shape="663.136793,531.616916 672.068325,528.421488 676.473663,538.988923 668.348686,542.612714 663.136793,531.616916"/>
    <poly id="545594042" type="building" color="255,230,230" fill="1" layer="-1.00" shape="661.106054,522.069317 675.872124,516.143167 679.233652,524.723780 663.793871,530.364852 661.106054,522.069317"/>
    <poly id="545594043" type="building" color="255,230,230" fill="1" layer="-1.00" shape="657.748278,514.517179 669.783874,509.773236 672.687401,516.740901 662.645872,520.968863 657.748278,514.517179"/>
    <poly id="545594044" type="shop" color="237,199,255" fill="1" layer="-1.00" shape="655.440961,510.776577 666.233063,506.744943 667.413027,509.781876 656.929042,513.635442 655.440961,510.776577"/>
    <poly id="545594045" type="building" color="255,230,230" fill="1" layer="-1.00" shape="645.684421,490.319753 655.275199,486.469443 659.592339,494.018085 649.034108,498.679230 645.684421,490.319753"/>
    <poly id="545594046" type="building" color="255,230,230" fill="1" layer="-1.00" shape="644.190176,485.768879 652.223179,481.116937 654.467797,485.808843 645.967098,489.212820 644.190176,485.768879"/>
    <poly id="545594047" type="building" color="255,230,230" fill="1" layer="-1.00" shape="642.240352,480.268589 647.951252,476.896896 649.865215,481.634244 644.186711,484.817816 642.240352,480.268589"/>
    <poly id="545594048" type="shop" color="237,199,255" fill="1" layer="-1.00" shape="641.554625,473.657791 654.760488,466.266479 658.256819,472.502088 647.951252,476.896896 644.383964,478.424980 641.554625,473.657791"/>
    <poly id="545594049" type="building" color="255,230,230" fill="1" layer="-1.00" shape="638.866786,468.381370 646.021667,461.819416 649.894251,468.418603 641.473970,472.707008 638.866786,468.381370"/>
    <poly id="545594050" type="amenity" color="237,199,199" fill="1" layer="-1.00" shape="636.607772,456.711271 641.928259,455.143621 642.155250,456.912238 637.874501,459.349762 636.607772,456.711271"/>
    <poly id="545594051" type="building" color="255,230,230" fill="1" layer="-1.00" shape="636.234769,454.213290 641.025951,452.647570 641.928259,455.143621 636.607772,456.711271 636.234769,454.213290"/>
    <poly id="545594052" type="shop" color="237,199,255" fill="1" layer="-1.00" shape="635.409369,451.639545 641.389632,449.560776 642.358668,452.211412 641.025951,452.647570 636.234769,454.213290 635.409369,451.639545"/>
    <poly id="545594053" type="building" color="255,230,230" fill="1" layer="-1.00" shape="633.032119,449.889822 629.798337,440.048013 648.354546,433.234394 651.940074,442.765268 633.032119,449.889822"/>
    <poly id="545594054" type="amenity" color="237,199,199" fill="1" layer="-1.00" shape="613.559154,386.681033 622.701464,383.838731 637.930038,432.221772 630.737353,434.459784 628.787719,435.064075 613.559154,386.681033"/>
    <poly id="545594521" type="building" color="255,230,230" fill="1" layer="-1.00" shape="613.833019,434.609846 608.514912,436.829966 608.067419,435.073211 613.153673,432.776523 613.833019,434.609846"/>
    <poly id="545594522" type="shop" color="237,199,255" fill="1" layer="-1.00" shape="608.391138,442.205102 613.080858,440.031507 611.347243,436.366227 606.668551,438.539782 608.391138,442.205102"/>
    <poly id="545594523" type="building" color="255,230,230" fill="1" layer="-1.00" shape="615.618341,446.414379 605.510663,450.642572 603.363926,445.574300 613.460536,441.335089 615.618341,446.414379"/>
    <poly id="545594524" type="building" color="255,230,230" fill="1" layer="-1.00" shape="603.758712,429.835872 611.333883,426.645394 613.480459,431.669430 605.916314,434.859867 603.758712,429.835872"/>
    <poly id="545594525" type="shop" color="237,199,255" fill="1" layer="-1.00" shape="599.421506,422.829192 607.425568,419.316441 610.260783,425.698228 602.267748,429.210939 599.421506,422.829192"/>
    <poly id="545594526" type="shop" color="237,199,255" fill="1" layer="-1.00" shape="594.962427,412.637958 603.828862,409.741371 597.963871,392.001946 591.972145,393.959102 581.233271,397.459696 583.987354,405.788166 591.851484,403.215944 594.962427,412.637958"/>
    <poly id="545594527" type="building" color="255,230,230" fill="1" layer="-1.00" shape="618.966007,454.220912 602.692977,461.181026 599.957288,454.876290 616.241343,447.916136 618.966007,454.220912"/>
    <poly id="545594528" type="building" color="255,230,230" fill="1" layer="-1.00" shape="619.576168,455.225061 622.056341,461.010953 610.385378,465.952620 607.905206,460.166727 619.576168,455.225061"/>
    <poly id="545594530" type="shop" color="237,199,255" fill="1" layer="-1.00" shape="625.880473,469.446115 612.582843,475.864558 609.016528,468.578595 622.314156,462.160153 625.880473,469.446115"/>
    <poly id="545594531" type="building" color="255,230,230" fill="1" layer="-1.00" shape="627.113649,474.982194 624.823943,476.074320 618.505258,479.094336 622.194083,486.711623 624.175511,485.753329 626.619905,490.798397 633.246829,487.633490 627.113649,474.982194"/>
    <poly id="545594532" type="building" color="255,230,230" fill="1" layer="-1.00" shape="634.513611,493.313214 630.560854,494.975410 620.805632,499.091730 619.159587,495.249186 632.878593,489.470630 634.513611,493.313214"/>
    <poly id="545594533" type="shop" color="237,199,255" fill="1" layer="-1.00" shape="636.763868,499.553364 634.407972,494.585386 624.115037,499.422503 626.481918,504.379382 636.763868,499.553364"/>
    <poly id="545594534" type="shop" color="237,199,255" fill="1" layer="-1.00" shape="640.959450,513.085383 637.106621,514.935218 631.437407,517.643216 627.937491,510.423365 637.459533,505.865532 640.959450,513.085383"/>
    <poly id="545594535" type="building" color="255,230,230" fill="1" layer="-1.00" shape="644.013646,519.035069 630.750413,525.818338 628.418304,521.325811 641.681536,514.542543 644.013646,519.035069"/>
    <poly id="545594536" type="building" color="255,230,230" fill="1" layer="-1.00" shape="647.990514,527.016255 637.448257,533.037597 634.218956,527.453496 644.750144,521.421135 647.990514,527.016255"/>
    <poly id="545594537" type="shop" color="237,199,255" fill="1" layer="-1.00" shape="649.975866,530.160843 640.157616,535.139999 639.135902,533.164156 648.954151,528.185000 649.975866,530.160843"/>
    <poly id="545594538" type="amenity" color="237,199,199" fill="1" layer="-1.00" shape="651.686183,533.483378 648.086292,535.144289 647.086028,533.002483 650.685918,531.341572 651.686183,533.483378"/>
    <poly id="545594539" type="shop" color="237,199,255" fill="1" layer="-1.00" shape="655.028378,539.785904 642.061383,546.158911 639.239765,540.484852 652.206758,534.111846 655.028378,539.785904"/>
    <poly id="545594540" type="shop" color="237,199,255" fill="1" layer="-1.00" shape="654.846395,541.290594 639.841906,548.367743 641.730914,552.308933 656.735405,545.231783 654.846395,541.290594"/>
    <poly id="545594541" type="shop" color="237,199,255" fill="1" layer="-1.00" shape="660.494432,553.954717 650.343468,558.415313 647.119227,551.194458 657.281217,546.733822 660.494432,553.954717"/>
    <poly id="545594542" type="building" color="255,230,230" fill="1" layer="-1.00" shape="635.927530,578.727967 630.839239,568.362080 650.343468,558.415313 656.729817,555.804232 661.818074,566.159058 635.927530,578.727967"/>
    <poly id="545594543" type="shop" color="237,199,255" fill="1" layer="-1.00" shape="643.125743,584.054310 666.620860,573.827581 663.785470,567.401559 640.290316,577.617229 643.125743,584.054310"/>
    <poly id="545594544" type="building" color="255,230,230" fill="1" layer="-1.00" shape="669.836265,575.596368 682.745394,610.838680 644.013152,624.836759 634.423237,598.661808 628.920925,583.619462 639.647487,579.753963 641.830576,585.717883 669.836265,575.596368"/>
    <poly id="545594545" type="amenity" color="237,199,199" fill="1" layer="-1.00" shape="693.579331,630.384737 685.113581,634.308363 681.868285,627.364061 673.941902,631.020304 668.818380,620.068419 685.199522,612.499650 693.579331,630.384737"/>
    <poly id="661829340" type="building" color="255,230,230" fill="1" layer="-1.00" shape="760.014309,311.476630 761.467305,304.714262 749.581710,302.191912 748.128712,308.954278 760.014309,311.476630"/>
    <poly id="661829341" type="building" color="255,230,230" fill="1" layer="-1.00" shape="740.466999,306.549230 745.851232,307.347965 747.003311,299.713032 741.630066,298.903199 740.466999,306.549230"/>
    <poly id="661829342" type="building" color="255,230,230" fill="1" layer="-1.00" shape="741.321646,295.973681 782.852320,308.584342 789.282261,287.703553 747.751562,275.081842 741.321646,295.973681"/>
    <poly id="661829343" type="building" color="255,230,230" fill="1" layer="-1.00" shape="674.992360,274.760992 675.055569,292.101317 693.691439,292.033383 693.628224,274.693057 674.992360,274.760992"/>
    <poly id="661829344" type="building" color="255,230,230" fill="1" layer="-1.00" shape="697.528884,292.019394 706.702379,291.687356 706.114210,275.543318 696.951746,275.875316 697.528884,292.019394"/>
    <poly id="661829345" type="building" color="255,230,230" fill="1" layer="-1.00" shape="709.648017,289.033509 731.696961,290.512439 732.827889,274.052478 710.767925,272.573590 709.648017,289.033509"/>
    <poly id="661829347" type="building" color="255,230,230" fill="1" layer="-1.00" shape="672.103479,292.985741 671.470525,282.703153 657.976128,283.526471 658.609080,293.809059 672.103479,292.985741"/>
    <poly id="661829348" type="building" color="255,230,230" fill="1" layer="-1.00" shape="656.419700,292.169243 657.544988,277.180161 649.404623,276.568407 648.279333,291.557488 656.419700,292.169243"/>
    <poly id="661829351" type="building" color="255,230,230" fill="1" layer="-1.00" shape="656.444327,298.926219 656.419700,292.169243 650.795858,292.189740 635.710730,292.244717 635.735355,299.001692 646.987311,300.132942 656.444327,298.926219"/>
    <poly id="661829352" type="building" color="255,230,230" fill="1" layer="-1.00" shape="636.335092,300.171763 646.403397,300.278838 646.618361,280.592988 636.561088,280.485874 636.335092,300.171763"/>
    <poly id="661829353" type="building" color="255,230,230" fill="1" layer="-1.00" shape="597.954123,319.709145 609.979849,315.297015 601.905954,293.584391 589.891221,297.985421 597.954123,319.709145"/>
    <poly id="661829354" type="building" color="255,230,230" fill="1" layer="-1.00" shape="607.950922,303.216894 619.120999,300.035430 615.826245,288.590286 604.656131,291.760691 607.950922,303.216894"/>
    <poly id="661829355" type="building" color="255,230,230" fill="1" layer="-1.00" shape="607.020558,289.993691 615.781613,288.446681 613.372563,274.941331 604.600484,276.488381 607.020558,289.993691"/>
    <poi id="1563693848" type="unknown" color="51,128,255" layer="4.00" x="968.20" y="301.76"/>
    <poi id="4057452905" type="natural" color="140,196,107" layer="1.00" x="721.44" y="488.68"/>
    <poi id="4057452906" type="natural" color="140,196,107" layer="1.00" x="659.41" y="425.46"/>
    <poi id="4057452908" type="natural" color="140,196,107" layer="1.00" x="968.08" y="339.94"/>
    <poi id="4057590116" type="shop" color="237,199,255" layer="4.00" x="689.18" y="340.63"/>
    <poi id="4057590117" type="shop" color="237,199,255" layer="4.00" x="763.18" y="320.11"/>
    <poi id="4057590119" type="amenity" color="237,199,199" layer="4.00" x="907.42" y="371.56"/>
</additional>
