<?xml version="1.0" encoding="UTF-8"?>

<!-- generated on Mon Mar 18 23:26:50 2019 by Eclipse SUMO duarouter Version 1.1.0
<configuration xmlns:xsi="http://www.w3.org/2001/XMLSchema-instance" xsi:noNamespaceSchemaLocation="http://sumo.dlr.de/xsd/duarouterConfiguration.xsd">

    <input>
        <net-file value="AB.net.xml"/>
        <route-files value="trips.trips.xml"/>
    </input>

    <output>
        <output-file value="AB.rou.xml"/>
        <alternatives-output value="AB.rou.alt.xml"/>
    </output>

    <time>
        <begin value="0"/>
        <end value="50.0"/>
    </time>

    <report>
        <no-warnings value="true"/>
        <ignore-errors value="true"/>
        <no-step-log value="true"/>
    </report>

</configuration>
-->

<routes xmlns:xsi="http://www.w3.org/2001/XMLSchema-instance" xsi:noNamespaceSchemaLocation="http://sumo.dlr.de/xsd/routes_file.xsd">
    <vehicle id="0" depart="0.00">
        <route edges="588870415 -143241031#0 252231691#0 252231691#1 -259489767#3 259489767#3"/>
    </vehicle>
    <vehicle id="1" depart="1.00">
        <route edges="-588870409#0 588870409#0 588870409#1 -259489767#2 -588870412#1 -588870412#0 -588870413#0"/>
    </vehicle>
    <vehicle id="2" depart="2.00">
        <route edges="588870409#0 588870409#1 259489767#3 252231691#2 252231691#3 252231691#4 252231691#5 252231688 234065654#6 234065654#0 234065654#1 234065654#2 252231687 234065653#1 234065653#2 234065653#3 234065653#4 234065653#5 588870406#0"/>
    </vehicle>
    <vehicle id="3" depart="3.00">
        <route edges="-403398961 139943468#1 142456697 286014727#0 286014727#1 286014727#2 286014727#3 286014727#4 286014727#5 252231691#0 252231691#1 252231691#2 252231691#3 252231691#4 252231691#5 252231688 234065654#6 234065654#0 234065654#1 234065654#2 252231687 234065653#1 234065653#2 234065653#3 234065653#4 234065653#5 234065653#6 234065653#7 234065630#0 234065630#1"/>
    </vehicle>
    <vehicle id="4" depart="4.00">
        <route edges="-252231697 252231691#3 252231691#4 252231691#5 252231688 234065654#6 234065654#0 234065654#1 234065654#2 252231687 234065653#1 234065653#2 234065653#3 234065653#4 234065653#5 234065653#6 234065653#7 561139899 561139898 139943468#0 139943468#1 142456697 286014727#0 286014727#1 -588870413#1 -588870413#0"/>
    </vehicle>
    <vehicle id="5" depart="5.00">
        <route edges="-234065629#2 234065629#2"/>
    </vehicle>
    <vehicle id="6" depart="6.00">
        <route edges="588870401 588870407 -588870408#0 588870412#1 259489767#2 259489767#3 252231691#2 252231691#3 252231691#4 252231691#5 252231688 234065654#6 234065654#0 234065654#1 234065654#2 252231687 234065653#1 234065653#2 234065653#3 234065653#4 234065653#5 234065653#6"/>
    </vehicle>
    <vehicle id="7" depart="7.00">
        <route edges="-252231697 252231691#3 588870399"/>
    </vehicle>
    <vehicle id="8" depart="8.00">
        <route edges="286014727#0 286014727#1 286014727#2 286014727#3 286014727#4 286014727#5 252231691#0 252231691#1 252231691#2 252231697"/>
    </vehicle>
    <vehicle id="9" depart="9.00">
        <route edges="-252231697 252231691#3 252231691#4 252231691#5 252231688 234065654#6 234065654#0 234065654#1 234065654#2 252231687 234065653#1 234065653#2 234065653#3 234065653#4 234065653#5 234065653#6"/>
    </vehicle>
    <vehicle id="10" depart="10.00">
        <route edges="252231691#3 588870399"/>
    </vehicle>
    <vehicle id="11" depart="11.00">
        <route edges="139943468#1 142456697 286014727#0 286014727#1 286014727#2 286014727#3 286014727#4 286014727#5 252231691#0 252231691#1 252231691#2 252231691#3 252231691#4 252231691#5 252231688 234065654#6 234065654#0 234065654#1 234065654#2 252231687 234065653#1 234065653#2 234065653#3 234065653#4 234065653#5 234065653#6"/>
    </vehicle>
    <vehicle id="12" depart="12.00">
        <route edges="588870415 -143241031#0 252231691#0 252231691#1 252231691#2 252231691#3 252231691#4 252231691#5 252231688 234065654#6 234065654#0 234065655 444068497"/>
    </vehicle>
    <vehicle id="13" depart="13.00">
        <route edges="588870407 -588870408#0 588870412#1 259489767#2 259489767#3 252231691#2 252231697"/>
    </vehicle>
    <vehicle id="14" depart="14.00">
        <route edges="-588870409#0 286014727#5 252231691#0 -588870388"/>
    </vehicle>
    <vehicle id="15" depart="15.00">
        <route edges="-234065630#1 -234065630#0 561139899 561139898 139943468#0 139943468#1 142456697 286014727#0 286014727#1 286014727#2 286014727#3 286014727#4 286014727#5 252231691#0 252231691#1 252231691#2 252231691#3 252231691#4 -588870405 588870406#1"/>
    </vehicle>
    <vehicle id="16" depart="16.00">
        <route edges="-234065630#1 234065630#1"/>
    </vehicle>
    <vehicle id="17" depart="17.00">
        <route edges="-588870401 588870400#1 -588870408#1 -588870408#0 588870412#1 259489767#2 -588870409#1 588870409#1"/>
    </vehicle>
    <vehicle id="18" depart="18.00">
        <route edges="588870415 -143241031#0 252231691#0 252231691#1 252231691#2 252231691#3 252231691#4 -588870405 588870405"/>
    </vehicle>
    <vehicle id="19" depart="19.00">
        <route edges="-234065629#2 -234065629#1 -234065629#0 561139899 561139898 139943468#0 139943468#1 142456697 286014727#0 286014727#1 286014727#2 286014727#3 286014727#4 286014727#5 252231691#0 252231691#1 252231691#2 252231697"/>
    </vehicle>
    <vehicle id="20" depart="20.00">
        <route edges="-588870408#1 -588870407"/>
    </vehicle>
    <vehicle id="21" depart="21.00">
        <route edges="588870415 -143241031#0 252231691#0 252231691#1 -259489767#3 259489767#3"/>
    </vehicle>
    <vehicle id="22" depart="22.00">
        <route edges="-143239467 234065653#5 234065653#6"/>
    </vehicle>
    <vehicle id="23" depart="23.00">
        <route edges="588870412#1 -259489767#1 -259489767#0 286014727#4 286014727#5"/>
    </vehicle>
    <vehicle id="24" depart="24.00">
        <route edges="-588870410 -259489767#0 286014727#4 286014727#5 252231691#0 252231691#1 252231691#2 252231691#3 252231691#4 -588870405 588870406#1"/>
    </vehicle>
    <vehicle id="25" depart="25.00">
        <route edges="252231691#5 252231688 234065654#6 234065654#0 234065654#1 234065654#2 252231687 234065653#1 234065653#2 234065653#3 234065653#4 234065653#5 234065653#6 234065653#7 561139899 561139898 139943468#0 139943468#1 142456697 286014727#0 286014727#1 -588870413#1 588870412#0 588870412#1"/>
    </vehicle>
    <vehicle id="26" depart="26.00">
        <route edges="286014727#4 286014727#5 252231691#0 252231691#1 252231691#2 252231691#3 252231691#4 252231691#5 252231688 234065654#6 234065654#0 234065654#1 234065654#2 252231687 234065653#1 234065653#2 234065653#3 234065653#4 234065653#5 234065653#6 234065653#7 234065630#0 234065630#1"/>
    </vehicle>
    <vehicle id="27" depart="27.00">
        <route edges="588870401 588870407 -588870408#0 588870412#1 259489767#2 259489767#3 -259489767#3"/>
    </vehicle>
    <vehicle id="28" depart="28.00">
        <route edges="286014727#4 286014727#5 143241031#0 -588870415"/>
    </vehicle>
    <vehicle id="29" depart="29.00">
        <route edges="-143241031#1 -588870415"/>
    </vehicle>
    <vehicle id="30" depart="30.00">
        <route edges="-234065630#1 -234065630#0 561139899 561139898 139943468#0 139943468#1 142456697 286014727#0 286014727#1 286014727#2 286014727#3 259489767#0 259489767#1 259489767#2"/>
    </vehicle>
    <vehicle id="31" depart="31.00">
        <route edges="259489767#2 -588870409#1 -588870409#0 286014727#5 143241031#0 -588870415"/>
    </vehicle>
    <vehicle id="32" depart="32.00">
        <route edges="234065653#6 234065653#7 561139899 561139898 139943468#0 139943468#1 142456697 286014727#0 286014727#1 -588870413#1 588870412#0 588870408#0 588870408#1 -588870408#1"/>
    </vehicle>
    <vehicle id="33" depart="33.00">
        <route edges="588870408#1 -588870408#1 -588870408#0 588870412#1 259489767#2 259489767#3 252231691#2 252231691#3 252231691#4 -588870405"/>
    </vehicle>
    <vehicle id="34" depart="34.00">
        <route edges="588870415 -143241031#0 252231691#0 252231691#1 -259489767#3 -259489767#2 -588870412#1 588870408#0 -588870407 588870407"/>
    </vehicle>
    <vehicle id="35" depart="35.00">
        <route edges="234065653#6 234065653#7 561139899 561139898 139943468#0 139943468#1 142456697 286014727#0 286014727#1 286014727#2 286014727#3 286014727#4 286014727#5 252231691#0 -588870388"/>
    </vehicle>
    <vehicle id="36" depart="36.00">
        <route edges="252231691#3 252231691#4 -588870405"/>
    </vehicle>
    <vehicle id="37" depart="37.00">
        <route edges="252231691#1 -259489767#3 -588870409#1 -588870410"/>
    </vehicle>
    <vehicle id="38" depart="38.00">
        <route edges="588870407 -588870408#0 588870412#1 259489767#2 259489767#3 252231691#2 252231691#3 252231691#4 252231691#5 252231688 234065654#6 234065654#0 234065654#1 234065654#2 252231687 234065653#1 234065653#2 234065653#3 234065653#4 234065653#5 588870406#0"/>
    </vehicle>
    <vehicle id="39" depart="39.00">
        <route edges="588870413#0 588870412#0 588870412#1 259489767#2 259489767#3 252231691#2 252231691#3 252231691#4 252231691#5"/>
    </vehicle>
    <vehicle id="40" depart="40.00">
        <route edges="-234065629#2 -234065629#1 -234065629#0 561139899 561139898 139943468#0 139943468#1 142456697 286014727#0 286014727#1 286014727#2 286014727#3 286014727#4 286014727#5 252231691#0 252231691#1 252231691#2 252231691#3 252231691#4 252231691#5 252231688 234065654#6 234065654#0 234065654#1 234065654#2 252231687 234065653#1 234065653#2 234065653#3 234065653#4 234065653#5 234065653#6"/>
    </vehicle>
    <vehicle id="41" depart="41.00">
        <route edges="-588870414 286014727#3 286014727#4 286014727#5 252231691#0 252231691#1 252231691#2 252231691#3 252231691#4 252231691#5 252231688 234065654#6 234065654#0 234065654#1 234065654#2 252231687 234065653#1 234065653#2 234065653#3 234065653#4 234065653#5 234065653#6 234065653#7 234065630#0 234065630#1"/>
    </vehicle>
    <vehicle id="42" depart="42.00">
        <route edges="259489767#1 259489767#2 259489767#3 252231691#2 252231691#3 252231691#4 252231691#5"/>
    </vehicle>
    <vehicle id="43" depart="43.00">
        <route edges="234065653#6 234065653#7 561139899 561139898 139943468#0 139943468#1 142456697 286014727#0 286014727#1 286014727#2 286014727#3 286014727#4 286014727#5 143241031#0 143241031#1"/>
    </vehicle>
    <vehicle id="44" depart="44.00">
        <route edges="-588870409#1 588870409#1 -259489767#2 -588870412#1 588870408#0 -588870407 -588870401"/>
    </vehicle>
    <vehicle id="45" depart="45.00">
        <route edges="-259489767#3 259489767#3 252231691#2 252231691#3 252231691#4 252231691#5 252231688 234065654#6 234065654#0 234065654#1 234065654#2 252231687 234065653#1 234065653#2 234065653#3 234065653#4 234065653#5 234065653#6 234065653#7 234065630#0 234065630#1"/>
    </vehicle>
    <vehicle id="46" depart="46.00">
        <route edges="-259489767#3 -588870409#1 -588870409#0 286014727#5 252231691#0 -588870388"/>
    </vehicle>
    <vehicle id="47" depart="47.00">
        <route edges="252231691#5 252231688 234065654#6 234065654#0 234065654#1 234065654#2 252231687 234065653#1 234065653#2 234065653#3 234065653#4 234065653#5 234065653#6 234065653#7 561139899 561139898 139943468#0 139943468#1 142456697 286014727#0 286014727#1 286014727#2 286014727#3 286014727#4 286014727#5 252231691#0 -588870388"/>
    </vehicle>
    <vehicle id="48" depart="48.00">
        <route edges="588870400#0 588870400#1 -588870408#1 -588870408#0"/>
    </vehicle>
    <vehicle id="49" depart="49.00">
        <route edges="-234065629#2 -234065629#1 -234065629#0 561139899 561139898 139943468#0 139943468#1 142456697 286014727#0 286014727#1 286014727#2 286014727#3 286014727#4 286014727#5 143241031#0 -588870415"/>
    </vehicle>
</routes>
