<?xml version="1.0" encoding="UTF-8"?>
<!-- generated on 2019-03-18 23:26:27.951167 by $Id$
  options: -n AB.net.xml -r AB.rou.xml -e 50 -l
-->
<routes xmlns:xsi="http://www.w3.org/2001/XMLSchema-instance" xsi:noNamespaceSchemaLocation="http://sumo.dlr.de/xsd/routes_file.xsd">
    <trip id="0" depart="0.00" from="588870415" to="259489767#3"/>
    <trip id="1" depart="1.00" from="-588870409#0" to="-588870413#0"/>
    <trip id="2" depart="2.00" from="588870409#0" to="588870406#0"/>
    <trip id="3" depart="3.00" from="-403398961" to="234065630#1"/>
    <trip id="4" depart="4.00" from="-252231697" to="-588870413#0"/>
    <trip id="5" depart="5.00" from="-234065629#2" to="234065629#2"/>
    <trip id="6" depart="6.00" from="588870401" to="234065653#6"/>
    <trip id="7" depart="7.00" from="-252231697" to="588870399"/>
    <trip id="8" depart="8.00" from="286014727#0" to="252231697"/>
    <trip id="9" depart="9.00" from="-252231697" to="234065653#6"/>
    <trip id="10" depart="10.00" from="252231691#3" to="588870399"/>
    <trip id="11" depart="11.00" from="139943468#1" to="234065653#6"/>
    <trip id="12" depart="12.00" from="588870415" to="444068497"/>
    <trip id="13" depart="13.00" from="588870407" to="252231697"/>
    <trip id="14" depart="14.00" from="-588870409#0" to="-588870388"/>
    <trip id="15" depart="15.00" from="-234065630#1" to="588870406#1"/>
    <trip id="16" depart="16.00" from="-234065630#1" to="234065630#1"/>
    <trip id="17" depart="17.00" from="-588870401" to="588870409#1"/>
    <trip id="18" depart="18.00" from="588870415" to="588870405"/>
    <trip id="19" depart="19.00" from="-234065629#2" to="252231697"/>
    <trip id="20" depart="20.00" from="-588870408#1" to="-588870407"/>
    <trip id="21" depart="21.00" from="588870415" to="259489767#3"/>
    <trip id="22" depart="22.00" from="-143239467" to="234065653#6"/>
    <trip id="23" depart="23.00" from="588870412#1" to="286014727#5"/>
    <trip id="24" depart="24.00" from="-588870410" to="588870406#1"/>
    <trip id="25" depart="25.00" from="252231691#5" to="588870412#1"/>
    <trip id="26" depart="26.00" from="286014727#4" to="234065630#1"/>
    <trip id="27" depart="27.00" from="588870401" to="-259489767#3"/>
    <trip id="28" depart="28.00" from="286014727#4" to="-588870415"/>
    <trip id="29" depart="29.00" from="-143241031#1" to="-588870415"/>
    <trip id="30" depart="30.00" from="-234065630#1" to="259489767#2"/>
    <trip id="31" depart="31.00" from="259489767#2" to="-588870415"/>
    <trip id="32" depart="32.00" from="234065653#6" to="-588870408#1"/>
    <trip id="33" depart="33.00" from="588870408#1" to="-588870405"/>
    <trip id="34" depart="34.00" from="588870415" to="588870407"/>
    <trip id="35" depart="35.00" from="234065653#6" to="-588870388"/>
    <trip id="36" depart="36.00" from="252231691#3" to="-588870405"/>
    <trip id="37" depart="37.00" from="252231691#1" to="-588870410"/>
    <trip id="38" depart="38.00" from="588870407" to="588870406#0"/>
    <trip id="39" depart="39.00" from="588870413#0" to="252231691#5"/>
    <trip id="40" depart="40.00" from="-234065629#2" to="234065653#6"/>
    <trip id="41" depart="41.00" from="-588870414" to="234065630#1"/>
    <trip id="42" depart="42.00" from="259489767#1" to="252231691#5"/>
    <trip id="43" depart="43.00" from="234065653#6" to="143241031#1"/>
    <trip id="44" depart="44.00" from="-588870409#1" to="-588870401"/>
    <trip id="45" depart="45.00" from="-259489767#3" to="234065630#1"/>
    <trip id="46" depart="46.00" from="-259489767#3" to="-588870388"/>
    <trip id="47" depart="47.00" from="252231691#5" to="-588870388"/>
    <trip id="48" depart="48.00" from="588870400#0" to="-588870408#0"/>
    <trip id="49" depart="49.00" from="-234065629#2" to="-588870415"/>
</routes>
